                                                                                
                                                                                
        -- CODE_ASTER -- VERSION : DÉVELOPPEMENT STABILISÉE (testing) --        
                                                                                
                          Version 11.3.0 du 12/12/2012                          
                         Copyright EDF R&D 1991 - 2016                          
                                                                                
                    Exécution du : Mon Jun 27 15:40:22 2016                     
                   Nom de la machine : liding-Precision-T3600                   
                              Architecture : 64bit                              
                          Type de processeur : x86_64                           
                Système d'exploitation : Linux 3.13.0-85-generic                
                        Langue des messages : en (UTF-8)                        
                                                                                
   
   !------------------------------------------------------------------------------------!
   ! <A> <SUPERVIS2_2>                                                                  !
   !                                                                                    !
   !     Vous utilisez une vieille version de Code_Aster.                               !
   !                                                                                    !
   !     En mettant à jour votre version, vous bénéficierez des dernières améliorations !
   !     apportées au code depuis 15 mois.                                              !
   !     Si vous avez des développements privés, vous risquez d'avoir un travail        !
   !     important de portage si vous ne suivez pas les mises à jour.                   !
   !                                                                                    !
   !                                                                                    !
   ! Ceci est une alarme. Si vous ne comprenez pas le sens de cette                     !
   ! alarme, vous pouvez obtenir des résultats inattendus !                             !
   !------------------------------------------------------------------------------------!
   
                           Parallélisme MPI : inactif                           
                          Parallélisme OpenMP : actif                           
                        Nombre de processus utilisés : 1                        
                      Version de la librairie HDF5 : 1.8.8                      
                      Version de la librairie MED : 3.0.6                       
                          Librairie MUMPS : installée                           
                    Version de la librairie SCOTCH : 5.1.10                     
                 Mémoire limite pour l'exécution : 20000.00 Mo                  
                   consommée par l'initialisation : 210.67 Mo                   
                 par les objets du jeu de commandes : 11.87 Mo                  
                reste pour l'allocation dynamique : 19777.46 Mo                 
                Taille limite des fichiers d'échange : 97.66 Go                 
                                                                                
   
   !----------------------------------------------------------------------------------------------------------------!
   ! <EXCEPTION> <MATRICE0_12>                                                                                      !
   !                                                                                                                !
   !  Une des charges renseignées pour l'assemblage des vecteurs est déjà présente dans le mot-clé                  !
   !  CHARGE définissant les conditions de Dirichlet. Il est interdit de renseigner plus d'une fois la même charge. !
   !----------------------------------------------------------------------------------------------------------------!
   

 --------------------------------------------------------------------------------
 ASTER 11.03.00 CONCEPT Pr_0 CALCULE LE 27/06/2016 A 15:40:22 DE TYPE ACOU_HARMO 

                    ENTITES TOPOLOGIQUES SELECTIONNEES 
 GROUP_MA : ENTREE SORTIE                                                        


 ======>

 ------>
 CHAMP AUX NOEUDS DE NOM SYMBOLIQUE  INTE_NOEU                                   
 NUMERO D'ORDRE: 1 FREQ:   2.00000000000000E+01                                  
 NOEUD        INTX_R       INTX_I       INTY_R       INTY_I       INTZ_R       INTZ_I  
 N1       -3.73239917093246E-22 -9.94289583424677E-04 -1.73057654814744E-22  6.08541332303976E+04 -8.77457164982041E-23 -9.91514176353011E-04
 N2       -3.69257717811036E-22  8.72587983332143E-04 -6.99662320074882E-23  6.08541247913602E+04 -5.64183727428409E-23  1.69743896503161E-03
 N3       -6.09299264653390E-23 -6.30021633478197E-04 -8.81180430439715E-23  1.92120517676774E-02 -1.65918545012101E-23  1.62362403341298E-03
 N4       -6.48236585414490E-23  1.29473608818318E-03 -2.27965825826888E-22  2.49302613335593E-02 -6.63064542318679E-24 -1.30722550382482E-03
 N5       -1.74565224052627E-22 -8.81469285961477E-04 -1.00855127096522E-22  6.08541248014360E+04 -2.72999742371836E-22 -1.69577372078861E-03
 N6        9.61516432787808E-23 -1.27643671893378E-03  1.13105860543545E-22  2.49427507492010E-02 -9.93707439030362E-23  1.29542994460772E-03
 N7        5.40394988214586E-22  9.90406500649518E-04 -2.22303375984884E-22  6.08541332352545E+04  3.38693063584612E-22  9.94983435192594E-04
 N8       -1.70642713674013E-22  6.27246207780055E-04  7.49794919450846E-24  1.92126068528171E-02 -3.86834820772801E-23 -1.62251386313372E-03
 N11       1.90259374831135E-23 -2.19813715292790E-03  2.94094722292881E-22  1.88277940797660E-02  3.02563025699559E-23 -4.85699497174726E-05
 N13       1.41691103285041E-22  2.25987520810551E-03 -1.92445912111806E-22  6.08541248049746E+04  1.29249652178255E-24 -3.09457888490960E-04
 N14       1.32288008342555E-22 -3.74682469249056E-05 -2.92776245162428E-22  1.88194678026706E-02 -1.75689109061633E-22 -3.09390579700285E-03
 N15      -1.63973579415753E-22  2.20646343002233E-03 -1.34739485947972E-22  1.88201616590961E-02  2.97184344252602E-23  3.88559597739781E-05
 N16       1.31750140197860E-22  4.99576625665408E-05  2.35729535610110E-22  1.88243247976424E-02 -6.16575147410464E-24  3.08904880203111E-03
 N18      -3.55301998651629E-22 -2.27028298462426E-03 -2.74630425716141E-22  6.08541247973423E+04  1.06164742148054E-23  3.11539443794711E-04
 N20       1.99607223817074E-23 -3.12927147330560E-04 -2.26992819589399E-22  6.08541248056715E+04  2.40703596353873E-22  3.15910709932603E-03
 N21       2.92847000747302E-23  3.08070184955141E-04 -2.38903735734023E-22  6.08541248035899E+04 -1.82338801371934E-22 -3.15563784048644E-03
 N23       1.19519990299027E-22  6.93856424534983E-07  3.47516919022649E-22  6.11981366439867E-03  1.23489673852606E-22  1.38771284906997E-06
 N25      -1.47306786560438E-22 -5.85803303962537E-06 -5.84820732042825E-22  6.08541070468972E+04 -2.43008033262239E-22 -2.08155530375233E-06
 

 ------>
 CHAMP AUX NOEUDS DE NOM SYMBOLIQUE  PRAC_NOEU                                   
 NUMERO D'ORDRE: 1 FREQ:   2.00000000000000E+01                                  
 NOEUD        PRES_R       PRES_I  
 N1       -7.45247695069959E-12 -1.21708184856047E+05
 N2       -7.45247695070010E-12 -1.21708184856055E+05
 N3       -7.45252696620050E-12 -1.21709001671163E+05
 N4       -7.45252696620057E-12 -1.21709001671164E+05
 N5       -7.45247695070009E-12 -1.21708184856055E+05
 N6       -7.45252696620058E-12 -1.21709001671165E+05
 N7       -7.45247695069958E-12 -1.21708184856046E+05
 N8       -7.45252696620050E-12 -1.21709001671163E+05
 N11      -7.45252696619903E-12 -1.21709001671139E+05
 N13      -7.45247695070192E-12 -1.21708184856085E+05
 N14      -7.45252696619867E-12 -1.21709001671133E+05
 N15      -7.45252696619903E-12 -1.21709001671139E+05
 N16      -7.45252696619867E-12 -1.21709001671133E+05
 N18      -7.45247695070193E-12 -1.21708184856085E+05
 N20      -7.45247695070229E-12 -1.21708184856091E+05
 N21      -7.45247695070229E-12 -1.21708184856091E+05
 N23      -7.45252696619553E-12 -1.21709001671082E+05
 N25      -7.45247695070705E-12 -1.21708184856168E+05
 
   
   !----------------------------------------------------------------------------------------------------------------!
   ! <EXCEPTION> <MATRICE0_12>                                                                                      !
   !                                                                                                                !
   !  Une des charges renseignées pour l'assemblage des vecteurs est déjà présente dans le mot-clé                  !
   !  CHARGE définissant les conditions de Dirichlet. Il est interdit de renseigner plus d'une fois la même charge. !
   !----------------------------------------------------------------------------------------------------------------!
   

 --------------------------------------------------------------------------------
 ASTER 11.03.00 CONCEPT Pr_1 CALCULE LE 27/06/2016 A 15:40:22 DE TYPE ACOU_HARMO 

                    ENTITES TOPOLOGIQUES SELECTIONNEES 
 GROUP_MA : ENTREE SORTIE                                                        


 ======>

 ------>
 CHAMP AUX NOEUDS DE NOM SYMBOLIQUE  INTE_NOEU                                   
 NUMERO D'ORDRE: 1 FREQ:   3.20000000000000E+01                                  
 NOEUD        INTX_R       INTX_I       INTY_R       INTY_I       INTZ_R       INTZ_I  
 N1        4.21865051811696E-23 -1.58758139157376E-03 -5.27583105218102E-23  3.80336075757224E+04  3.08710931131948E-23 -1.59218896880923E-03
 N2       -6.82846757494534E-23  1.41024387479987E-03 -7.96204152641337E-23  3.80335940703343E+04  5.07161906887211E-23  2.71857898250935E-03
 N3       -7.23369379272256E-23 -1.00566166468615E-03 -1.31402948078652E-23  3.07370795470569E-02  5.69887216770476E-23  2.59980236299848E-03
 N4        7.78354311865255E-23  2.04119178437687E-03 -8.65426196368903E-24  3.99046082361080E-02  6.99086321849455E-24 -2.07764647764452E-03
 N5        5.83606027388822E-23 -1.41197849211205E-03 -6.48409433839272E-23  3.80335940722418E+04 -1.18407978820049E-22 -2.71673595161516E-03
 N6        7.04418265905610E-23 -2.03811322379576E-03 -2.99645872576136E-24  3.99069120643071E-02  8.69293040054034E-23  2.07696888111538E-03
 N7       -5.31248424214399E-23  1.58646400570128E-03  5.20151404402196E-23  3.80336075769421E+04  1.06190150723236E-23  1.59286655369679E-03
 N8        2.63030975447181E-23  1.00392701757155E-03 -3.14894423014822E-24  3.07356701462763E-02 -9.64724379421073E-24 -2.60099493288976E-03
 N11       6.04913242123699E-23 -3.51469319663671E-03  5.44118007876619E-23  3.01195722780836E-02 -1.30955643580141E-23 -7.92110342561849E-05
 N13      -1.96304823468360E-23  3.61776123171490E-03  6.27964582556645E-23  3.80335940921323E+04 -2.89093340538773E-23 -4.92875247218576E-04
 N14       1.15265037783753E-23 -7.81946394624533E-05 -1.71703509599907E-23  3.01188946815448E-02 -1.88931618708877E-24 -4.94306668005716E-03
 N15       2.03948058320633E-23  3.51699702483577E-03  1.09942473084269E-22  3.01187591622486E-02 -5.76693139524905E-23  7.67039270983758E-05
 N16      -2.13753310329295E-23  7.77880815449709E-05 -4.22019760599422E-24  3.01198433166855E-02  1.20159127068055E-22  4.94401531519796E-03
 N18      -4.31075783364705E-23 -3.61952295242259E-03 -7.46249794564594E-23  3.80335940891510E+04  1.64203604056589E-23  4.94636967926259E-04
 N20      -3.82131525012772E-23 -4.94501450948904E-04 -2.22799563183381E-23  3.80335940917381E+04  7.69469696696022E-23  5.04814292937726E-03
 N21       2.29372670285899E-23  4.93146281173763E-04 -4.19773966031488E-23  3.80335940909249E+04  3.24779480211742E-23 -5.04611017471455E-03
 N23      -1.13994903038469E-23 -6.77596529135476E-07 -5.95037715217295E-23  9.78828842127988E-03 -1.13994903038469E-23 -6.77596529135476E-07
 N25      -4.76926538174433E-23 -1.83672461754160E-06 -5.45145547105474E-23  3.80335656742903E+04 -3.00908137328580E-23  0.00000000000000E+00
 

 ------>
 CHAMP AUX NOEUDS DE NOM SYMBOLIQUE  PRAC_NOEU                                   
 NUMERO D'ORDRE: 1 FREQ:   3.20000000000000E+01                                  
 NOEUD        PRES_R       PRES_I  
 N1       -4.65776558301892E-12 -7.60670845873575E+04
 N2       -4.65776558302100E-12 -7.60670845873915E+04
 N3       -4.65784560797729E-12 -7.60683914941069E+04
 N4       -4.65784560797761E-12 -7.60683914941122E+04
 N5       -4.65776558302099E-12 -7.60670845873914E+04
 N6       -4.65784560797762E-12 -7.60683914941122E+04
 N7       -4.65776558301892E-12 -7.60670845873575E+04
 N8       -4.65784560797728E-12 -7.60683914941068E+04
 N11      -4.65784560797128E-12 -7.60683914940088E+04
 N13      -4.65776558302849E-12 -7.60670845875138E+04
 N14      -4.65784560796978E-12 -7.60683914939843E+04
 N15      -4.65784560797128E-12 -7.60683914940088E+04
 N16      -4.65784560796978E-12 -7.60683914939843E+04
 N18      -4.65776558302849E-12 -7.60670845875138E+04
 N20      -4.65776558302999E-12 -7.60670845875384E+04
 N21      -4.65776558302999E-12 -7.60670845875383E+04
 N23      -4.65784560795693E-12 -7.60683914937744E+04
 N25      -4.65776558304950E-12 -7.60670845878569E+04
 
   
   !----------------------------------------------------------------------------------------------------------------!
   ! <EXCEPTION> <MATRICE0_12>                                                                                      !
   !                                                                                                                !
   !  Une des charges renseignées pour l'assemblage des vecteurs est déjà présente dans le mot-clé                  !
   !  CHARGE définissant les conditions de Dirichlet. Il est interdit de renseigner plus d'une fois la même charge. !
   !----------------------------------------------------------------------------------------------------------------!
   

 --------------------------------------------------------------------------------
 ASTER 11.03.00 CONCEPT Pr_2 CALCULE LE 27/06/2016 A 15:40:22 DE TYPE ACOU_HARMO 

                    ENTITES TOPOLOGIQUES SELECTIONNEES 
 GROUP_MA : ENTREE SORTIE                                                        


 ======>

 ------>
 CHAMP AUX NOEUDS DE NOM SYMBOLIQUE  INTE_NOEU                                   
 NUMERO D'ORDRE: 1 FREQ:   4.40000000000000E+01                                  
 NOEUD        INTX_R       INTX_I       INTY_R       INTY_I       INTZ_R       INTZ_I  
 N1        2.04163866178991E-24 -2.18480706254821E-03  1.70772103891265E-23  2.76605656152479E+04  8.20405730741588E-24 -2.19068463149703E-03
 N2       -1.13631786441381E-23  1.94143270146813E-03  2.20141518451344E-23  2.76605470469908E+04  4.54984901413482E-24  3.73629890310011E-03
 N3       -1.27725090886743E-23 -1.38153161770481E-03 -1.90335760751529E-23  4.22647634891888E-02  8.45409248678565E-24  3.57407940962509E-03
 N4       -5.26708909975386E-23  2.80197113855713E-03  2.62045940442231E-24  5.48719706367429E-02  9.35676040020187E-24 -2.85544441738454E-03
 N5        2.12406277913254E-23 -1.94137535933204E-03 -7.93467348036523E-24  2.76605470473223E+04 -2.26644213959499E-23 -3.73612687669185E-03
 N6        1.49309726620198E-23 -2.80230520641130E-03  8.52806387701320E-24  5.48716122367508E-02 -2.45746364903810E-23  2.85487097739711E-03
 N7       -2.15261071099302E-23  2.18366699037084E-03 -1.02429738901731E-23  2.76605656160363E+04 -2.06727735373153E-23  2.18989617712585E-03
 N8       -8.29533426446443E-24  1.38118755371235E-03 -1.34207919857194E-23  4.22640753612038E-02  1.18600721833491E-23 -3.57442347361755E-03
 N11      -4.52104209381127E-24 -4.83445749396437E-03  2.94181228452725E-23  4.14154128516231E-02 -2.51424948130928E-24 -1.07197437648806E-04
 N13       1.46709075194317E-23  4.97586385890261E-03 -2.61523167298870E-24  2.76605470735846E+04 -4.73262046770335E-24 -6.78214114562612E-04
 N14      -8.27776093132740E-24 -1.07161597649468E-04  6.77417184462087E-24  4.14156278915706E-02  2.25550699333564E-23 -6.79727089090555E-03
 N15      -2.62028961292656E-23  4.83395573397537E-03 -1.62798739561768E-23  4.14157712516152E-02  1.10265157676416E-23  1.06946557654309E-04
 N16       3.06843730167264E-24  1.06946557654185E-04 -2.50581420193903E-23  4.14156278915707E-02  2.43732112647274E-23  6.79712753090869E-03
 N18      -9.70556269181041E-24 -4.97708237929445E-03  2.83957614136886E-23  2.76605470734412E+04  3.38047123720609E-24  6.77282304851207E-04
 N20      -1.10501145257135E-23 -6.77927403882961E-04  2.96258290677561E-23  2.76605470736881E+04 -1.33907598597165E-23  6.93983201987189E-03
 N21       1.45196864261674E-24  6.77640693202529E-04  2.04380860115046E-23  2.76605470734731E+04 -6.91387154511231E-24 -6.93990369754200E-03
 N23      -8.20189597788467E-25 -1.43359996854133E-07 -8.55404330753792E-24  1.34632240245587E-02 -9.59845766143529E-24 -2.86719993708266E-07
 N25       5.61923589789378E-24  2.57859083576881E-07  1.42613934760455E-23  2.76605079989208E+04  7.13765701436761E-24 -1.43355340218813E-07
 

 ------>
 CHAMP AUX NOEUDS DE NOM SYMBOLIQUE  PRAC_NOEU                                   
 NUMERO D'ORDRE: 1 FREQ:   4.40000000000000E+01                                  
 NOEUD        PRES_R       PRES_I  
 N1       -3.38743132157019E-12 -5.53209517050736E+04
 N2       -3.38743132157558E-12 -5.53209517051616E+04
 N3       -3.38754135620330E-12 -5.53227487070041E+04
 N4       -3.38754135620415E-12 -5.53227487070180E+04
 N5       -3.38743132157558E-12 -5.53209517051617E+04
 N6       -3.38754135620415E-12 -5.53227487070180E+04
 N7       -3.38743132157018E-12 -5.53209517050736E+04
 N8       -3.38754135620329E-12 -5.53227487070041E+04
 N11      -3.38754135618769E-12 -5.53227487067492E+04
 N13      -3.38743132159506E-12 -5.53209517054798E+04
 N14      -3.38754135618378E-12 -5.53227487066854E+04
 N15      -3.38754135618769E-12 -5.53227487067492E+04
 N16      -3.38754135618378E-12 -5.53227487066854E+04
 N18      -3.38743132159506E-12 -5.53209517054798E+04
 N20      -3.38743132159896E-12 -5.53209517055436E+04
 N21      -3.38743132159897E-12 -5.53209517055436E+04
 N23      -3.38754135615037E-12 -5.53227487061398E+04
 N25      -3.38743132164968E-12 -5.53209517063718E+04
 
   
   !----------------------------------------------------------------------------------------------------------------!
   ! <EXCEPTION> <MATRICE0_12>                                                                                      !
   !                                                                                                                !
   !  Une des charges renseignées pour l'assemblage des vecteurs est déjà présente dans le mot-clé                  !
   !  CHARGE définissant les conditions de Dirichlet. Il est interdit de renseigner plus d'une fois la même charge. !
   !----------------------------------------------------------------------------------------------------------------!
   

 --------------------------------------------------------------------------------
 ASTER 11.03.00 CONCEPT Pr_3 CALCULE LE 27/06/2016 A 15:40:23 DE TYPE ACOU_HARMO 

                    ENTITES TOPOLOGIQUES SELECTIONNEES 
 GROUP_MA : ENTREE SORTIE                                                        


 ======>

 ------>
 CHAMP AUX NOEUDS DE NOM SYMBOLIQUE  INTE_NOEU                                   
 NUMERO D'ORDRE: 1 FREQ:   5.60000000000000E+01                                  
 NOEUD        INTX_R       INTX_I       INTY_R       INTY_I       INTZ_R       INTZ_I  
 N1        5.03317160618287E-24 -2.77952582586886E-03 -2.09698161269470E-24  2.17330535472306E+04  1.47696892858317E-23 -2.78726947021380E-03
 N2       -2.33919098947230E-24  2.47155887781134E-03 -1.16100130409359E-23  2.17330299138427E+04 -1.89015445265574E-23  4.75550031549320E-03
 N3        4.85669041731242E-24 -1.75782010608052E-03  1.31544259286965E-23  5.37911219572550E-02 -1.60581680130723E-23  4.54946670263250E-03
 N4       -7.01004976760341E-24  3.56677750509516E-03 -1.74970907707569E-23  6.98370539522414E-02  1.73501980163979E-23 -3.63452689543660E-03
 N5        7.88954541441190E-24 -2.47127568167529E-03 -4.78056271886665E-24  2.17330299143812E+04  3.44373354189261E-24 -4.75511092080613E-03
 N6       -2.83178780618662E-23 -3.56684788484804E-03 -2.29163640562871E-23  6.98369654487922E-02  6.02384190439488E-24  3.63474815405953E-03
 N7        2.15554508448950E-23  2.77929206748593E-03 -1.33660552812814E-23  2.17330535474076E+04  2.17149605946613E-24  2.78722522081754E-03
 N8       -7.42947568071743E-24  1.75771390194152E-03  1.52619268412479E-23  5.37908033448379E-02 -8.78430557298115E-25 -4.54967911091052E-03
 N11      -2.49640125012183E-23 -6.15240577258714E-03  5.32089639570339E-24  5.27111940194725E-02  7.77873992957269E-24 -1.36251059999107E-04
 N13      -1.25939673272942E-24  6.33297359239061E-03 -1.43090532964953E-23  2.17330299485613E+04 -5.43831479604925E-26 -8.62553481249792E-04
 N14       4.09404366598713E-24 -1.36251059998695E-04 -1.63561967527728E-23  5.27108400055164E-02 -7.03700043891759E-24 -8.65116790473686E-03
 N15       7.76876327124766E-24  6.15240577258713E-03 -1.50903344122566E-23  5.27110612642987E-02 -1.89075195808972E-24  1.36206808274521E-04
 N16      -4.34721613379637E-24  1.36206808274109E-04 -1.31402151736279E-23  5.27109727606902E-02  9.99980955030592E-24  8.65125640818603E-03
 N18       2.44993592529099E-24 -6.33319483937190E-03 -7.26852651538295E-24  2.17330299480746E+04 -3.76678603535084E-25  8.62907476419853E-04
 N20       8.82996897557008E-25 -8.62818977629949E-04 -3.10725873461570E-23  2.17330299482731E+04 -2.34692627213126E-24  8.83240074002902E-03
 N21      -6.67466021785146E-25  8.62641980044917E-04  1.11919798700412E-23  2.17330299483616E+04  2.60008541880819E-24 -8.83235649063275E-03
 N23       2.45646417563443E-24  0.00000000000000E+00  7.65844805485967E-24  1.71346217728513E-02 -8.12890993034155E-24 -1.32755173752868E-07
 N25       2.45633492772772E-24 -1.39944543653056E-08 -2.56337132599074E-23  2.17329802168324E+04 -1.44369833957554E-24  1.76997585038183E-07
 

 ------>
 CHAMP AUX NOEUDS DE NOM SYMBOLIQUE  PRAC_NOEU                                   
 NUMERO D'ORDRE: 1 FREQ:   5.60000000000000E+01                                  
 NOEUD        PRES_R       PRES_I  
 N1       -2.66151745550189E-12 -4.34658786085089E+04
 N2       -2.66151745551301E-12 -4.34658786086905E+04
 N3       -2.66165750010849E-12 -4.34681657104994E+04
 N4       -2.66165750011025E-12 -4.34681657105281E+04
 N5       -2.66151745551301E-12 -4.34658786086904E+04
 N6       -2.66165750011025E-12 -4.34681657105281E+04
 N7       -2.66151745550189E-12 -4.34658786085089E+04
 N8       -2.66165750010849E-12 -4.34681657104994E+04
 N11      -2.66165750007632E-12 -4.34681657099740E+04
 N13      -2.66151745555317E-12 -4.34658786093463E+04
 N14      -2.66165750006827E-12 -4.34681657098425E+04
 N15      -2.66165750007632E-12 -4.34681657099740E+04
 N16      -2.66165750006827E-12 -4.34681657098425E+04
 N18      -2.66151745555317E-12 -4.34658786093463E+04
 N20      -2.66151745556123E-12 -4.34658786094779E+04
 N21      -2.66151745556122E-12 -4.34658786094778E+04
 N23      -2.66165749999939E-12 -4.34681657087176E+04
 N25      -2.66151745566578E-12 -4.34658786111853E+04
 
   
   !----------------------------------------------------------------------------------------------------------------!
   ! <EXCEPTION> <MATRICE0_12>                                                                                      !
   !                                                                                                                !
   !  Une des charges renseignées pour l'assemblage des vecteurs est déjà présente dans le mot-clé                  !
   !  CHARGE définissant les conditions de Dirichlet. Il est interdit de renseigner plus d'une fois la même charge. !
   !----------------------------------------------------------------------------------------------------------------!
   

 --------------------------------------------------------------------------------
 ASTER 11.03.00 CONCEPT Pr_4 CALCULE LE 27/06/2016 A 15:40:23 DE TYPE ACOU_HARMO 

                    ENTITES TOPOLOGIQUES SELECTIONNEES 
 GROUP_MA : ENTREE SORTIE                                                        


 ======>

 ------>
 CHAMP AUX NOEUDS DE NOM SYMBOLIQUE  INTE_NOEU                                   
 NUMERO D'ORDRE: 1 FREQ:   6.80000000000000E+01                                  
 NOEUD        INTX_R       INTX_I       INTY_R       INTY_I       INTZ_R       INTZ_I  
 N1       -1.42974520106595E-23 -3.37516527712302E-03  4.24954952021490E-24  1.78975555401236E+04 -8.58047339924258E-24 -3.38464827016624E-03
 N2        4.32415467834102E-24  3.00112722243293E-03  6.44296148996382E-25  1.78975268431377E+04  5.69708610542488E-24  5.77450656257391E-03
 N3        3.54677097858030E-24 -2.13419912131740E-03 -2.53322900692385E-24  6.53177055207909E-02  7.54669815258930E-25  5.52529242646837E-03
 N4        4.53302732538518E-24  4.33088281023276E-03 -1.77467115335547E-24  8.48036529774928E-02 -4.17667344458665E-24 -4.41352030152193E-03
 N5        1.62468180740713E-24 -3.00101918833496E-03 -5.95077286962343E-24  1.78975268432196E+04  6.66090317242750E-24 -5.77432650574397E-03
 N6       -9.54028439168984E-24 -4.33063524182432E-03  2.90541228246663E-24  8.48037430128929E-02  9.32082424641977E-24  4.41340025432196E-03
 N7       -4.68825181186175E-24  3.37486702645612E-03  1.83672062284419E-24  1.78975555401386E+04 -9.53749352802855E-24  3.38439318965717E-03
 N8        3.95163732164571E-26  2.13412709299741E-03  2.69716840495746E-25  6.53177295302310E-02 -4.75304477919701E-24 -5.52529242646837E-03
 N11      -3.95985734727461E-24 -7.47046222531451E-03 -3.91429877734978E-24  6.40070511979427E-02  1.19070766949156E-24 -1.66137821823636E-04
 N13      -9.97530950967537E-25  7.69001714052491E-03  1.52773958348722E-24  1.78975268849639E+04 -3.02697095388822E-24 -1.04773568869717E-03
 N14       2.42279512750580E-24 -1.65995265772566E-04  9.11966756718950E-25  6.40070211857217E-02 -1.37625354148500E-25 -1.05052254289638E-02
 N15       2.80897729470646E-24  7.47055226071449E-03 -5.75199151641489E-24  6.40070211861427E-02 -4.08878469577723E-24  1.65995265773658E-04
 N16      -2.39727405272287E-24  1.66145324772542E-04  2.43177422651504E-24  6.40071412329217E-02  4.87803930092456E-24  1.05051804112638E-02
 N18       2.80956202629687E-24 -7.69013717841154E-03 -4.98923599204805E-24  1.78975268848439E+04  1.18942078347244E-24  1.04770567922551E-03
 N20      -2.27988571963419E-24 -1.04775069343989E-03  6.09641804974385E-24  1.78975268850066E+04 -7.86813318018342E-24  1.07247399666469E-02
 N21       1.10357585800755E-24  1.04769067449658E-03 -2.06108528606353E-24  1.78975268850366E+04 -3.75323491817822E-25 -1.07247249619110E-02
 N23       5.25552346213025E-24  4.50176999900777E-08 -4.96070828725080E-24  2.08062805813908E-02 -5.25552346213025E-24 -4.50176999900777E-08
 N25       2.58463540498278E-24  7.18875294708488E-09  3.47775325409563E-24  1.78974664982663E+04  4.50803050104401E-24  6.00189433187792E-08
 

 ------>
 CHAMP AUX NOEUDS DE NOM SYMBOLIQUE  PRAC_NOEU                                   
 NUMERO D'ORDRE: 1 FREQ:   6.80000000000000E+01                                  
 NOEUD        PRES_R       PRES_I  
 N1       -2.19180142197100E-12 -3.57948336368823E+04
 N2       -2.19180142199091E-12 -3.57948336372075E+04
 N3       -2.19197147693132E-12 -3.57976108451426E+04
 N4       -2.19197147693448E-12 -3.57976108451941E+04
 N5       -2.19180142199091E-12 -3.57948336372075E+04
 N6       -2.19197147693448E-12 -3.57976108451942E+04
 N7       -2.19180142197100E-12 -3.57948336368823E+04
 N8       -2.19197147693132E-12 -3.57976108451426E+04
 N11      -2.19197147687373E-12 -3.57976108442020E+04
 N13      -2.19180142206281E-12 -3.57948336383818E+04
 N14      -2.19197147685931E-12 -3.57976108439666E+04
 N15      -2.19197147687373E-12 -3.57976108442020E+04
 N16      -2.19197147685931E-12 -3.57976108439666E+04
 N18      -2.19180142206281E-12 -3.57948336383818E+04
 N20      -2.19180142207723E-12 -3.57948336386172E+04
 N21      -2.19180142207723E-12 -3.57948336386172E+04
 N23      -2.19197147673599E-12 -3.57976108419525E+04
 N25      -2.19180142226443E-12 -3.57948336416744E+04
 
   
   !----------------------------------------------------------------------------------------------------------------!
   ! <EXCEPTION> <MATRICE0_12>                                                                                      !
   !                                                                                                                !
   !  Une des charges renseignées pour l'assemblage des vecteurs est déjà présente dans le mot-clé                  !
   !  CHARGE définissant les conditions de Dirichlet. Il est interdit de renseigner plus d'une fois la même charge. !
   !----------------------------------------------------------------------------------------------------------------!
   

 --------------------------------------------------------------------------------
 ASTER 11.03.00 CONCEPT Pr_5 CALCULE LE 27/06/2016 A 15:40:23 DE TYPE ACOU_HARMO 

                    ENTITES TOPOLOGIQUES SELECTIONNEES 
 GROUP_MA : ENTREE SORTIE                                                        


 ======>

 ------>
 CHAMP AUX NOEUDS DE NOM SYMBOLIQUE  INTE_NOEU                                   
 NUMERO D'ORDRE: 1 FREQ:   8.00000000000000E+01                                  
 NOEUD        INTX_R       INTX_I       INTY_R       INTY_I       INTZ_R       INTZ_I  
 N1       -3.77402905311342E-24 -3.97063632288852E-03  1.29807377498480E-24  1.52126652649197E+04 -2.47809296226033E-24 -3.98176972821846E-03
 N2        5.13814299476817E-25  3.53033236559823E-03  4.21191643741479E-24  1.52126315041572E+04 -5.42374700316089E-25  6.79355840148807E-03
 N3       -3.36701412932036E-24 -2.51106392829736E-03  5.10240840379760E-25  7.68458332693369E-02 -1.04192403820428E-24  6.50032581904138E-03
 N4       -4.73003392094772E-24  5.09485512350377E-03 -8.53748182755269E-24  9.97706755792847E-02  7.11500717639890E-25 -5.19244279931232E-03
 N5        9.80075284850379E-25 -3.53032369303322E-03  9.25125582545269E-25  1.52126315042557E+04  2.28435119064956E-24 -6.79350636609802E-03
 N6       -4.34122594862780E-24 -5.09487275960321E-03 -2.39497795798391E-24  9.97706972630256E-02  2.52739721776339E-24  5.19237774808969E-03
 N7       -4.50841150010934E-24  3.97056482661598E-03 -1.38218528014308E-24  1.52126652650823E+04 -2.95636497998111E-24  3.98166132115585E-03
 N8        2.44797303959171E-25  2.51110729577911E-03  9.76965281417177E-25  7.68457465343733E-02 -3.03257845862905E-25 -6.50030847204868E-03
 N11      -4.15034122212746E-24 -8.78877795795054E-03 -1.76038850802134E-24  7.53037506657335E-02  7.24051528410429E-25 -1.95327137792857E-04
 N13      -2.31633482111688E-24  9.04703552582179E-03 -5.70302258264099E-25  1.52126315537772E+04 -1.86741345199417E-24 -1.23277259397044E-03
 N14       7.24051528398392E-25 -1.95327137790396E-04 -6.15938663453548E-24  7.53037181391734E-02 -2.75610064214205E-24 -1.23592986231983E-02
 N15      -4.27548471039545E-24  8.78877795795055E-03 -2.42426160521029E-24  7.53037398238631E-02 -2.83972759135355E-24  1.95272928440672E-04
 N16      -2.83972759131593E-24  1.95272928438212E-04 -5.24739999104911E-24  7.53037723485256E-02 -7.49350000588743E-25  1.23592118882348E-02
 N18      -2.16264985823030E-24 -9.04718729570946E-03  6.21698123961059E-24  1.52126315537014E+04 -7.87793792782440E-25  1.23272923114540E-03
 N20      -6.20731977521116E-26 -1.23277259398598E-03 -3.64133145140226E-24  1.52126315539581E+04 -1.17926189850551E-24  1.26171944784654E-02
 N21       6.85645555852009E-25  1.23272381080780E-03  3.23117426778526E-25  1.52126315539147E+04 -3.03319869435280E-24 -1.26171944784654E-02
 N23      -1.86756251504778E-24 -1.08418704352839E-08  2.00227373130851E-24  2.44785582322862E-02 -8.49958257008313E-25 -4.33674817428703E-08
 N25       2.34509861290673E-24 -1.56405686128208E-08  5.69555049214674E-24  1.52125605123520E+04  5.39758358411895E-25 -1.08407062632265E-08
 

 ------>
 CHAMP AUX NOEUDS DE NOM SYMBOLIQUE  PRAC_NOEU                                   
 NUMERO D'ORDRE: 1 FREQ:   8.00000000000000E+01                                  
 NOEUD        PRES_R       PRES_I  
 N1       -1.86299419615301E-12 -3.04250041309886E+04
 N2       -1.86299419618543E-12 -3.04250041315181E+04
 N3       -1.86319426192879E-12 -3.04282714530592E+04
 N4       -1.86319426193392E-12 -3.04282714531431E+04
 N5       -1.86299419618543E-12 -3.04250041315181E+04
 N6       -1.86319426193392E-12 -3.04282714531431E+04
 N7       -1.86299419615301E-12 -3.04250041309885E+04
 N8       -1.86319426192879E-12 -3.04282714530592E+04
 N11      -1.86319426183500E-12 -3.04282714515276E+04
 N13      -1.86299419630251E-12 -3.04250041334302E+04
 N14      -1.86319426181153E-12 -3.04282714511442E+04
 N15      -1.86319426183500E-12 -3.04282714515276E+04
 N16      -1.86319426181153E-12 -3.04282714511442E+04
 N18      -1.86299419630252E-12 -3.04250041334302E+04
 N20      -1.86299419632599E-12 -3.04250041338136E+04
 N21      -1.86299419632599E-12 -3.04250041338136E+04
 N23      -1.86319426161071E-12 -3.04282714478646E+04
 N25      -1.86299419663081E-12 -3.04250041387917E+04
 
   
   !----------------------------------------------------------------------------------------------------------------!
   ! <EXCEPTION> <MATRICE0_12>                                                                                      !
   !                                                                                                                !
   !  Une des charges renseignées pour l'assemblage des vecteurs est déjà présente dans le mot-clé                  !
   !  CHARGE définissant les conditions de Dirichlet. Il est interdit de renseigner plus d'une fois la même charge. !
   !----------------------------------------------------------------------------------------------------------------!
   

 --------------------------------------------------------------------------------
 ASTER 11.03.00 CONCEPT Pr_6 CALCULE LE 27/06/2016 A 15:40:23 DE TYPE ACOU_HARMO 

                    ENTITES TOPOLOGIQUES SELECTIONNEES 
 GROUP_MA : ENTREE SORTIE                                                        


 ======>

 ------>
 CHAMP AUX NOEUDS DE NOM SYMBOLIQUE  INTE_NOEU                                   
 NUMERO D'ORDRE: 1 FREQ:   9.20000000000000E+01                                  
 NOEUD        INTX_R       INTX_I       INTY_R       INTY_I       INTZ_R       INTZ_I  
 N1        8.23390773675142E-25 -4.56614759459077E-03  7.62001769120047E-25  1.32281449124097E+04 -6.75817332369335E-25 -4.57897580901400E-03
 N2        9.18490976682042E-25  4.06008314250700E-03  7.93212893062935E-25  1.32281060883484E+04 -1.48384897387668E-24  7.81233504172291E-03
 N3        7.13383373975699E-26 -2.88775343368870E-03  3.65786773781640E-25  8.83744185861807E-02  2.00291603202645E-24  7.47538748951215E-03
 N4        1.86189009139743E-24  5.85921937053439E-03 -2.27082612786649E-25  1.14738621761594E-01 -1.75358864167135E-25 -5.97132027618580E-03
 N5        2.86059791554320E-24 -4.06012248782919E-03 -1.36783684691020E-24  1.32281060884653E+04  9.54551943125722E-25 -7.81223667841741E-03
 N6        1.03722219265015E-24 -5.85910656955628E-03  5.09421187976219E-25  1.14738670950232E-01  1.49371490805199E-24  5.97131207807949E-03
 N7       -1.89313750307677E-24  4.56614620654158E-03  4.94899777499454E-25  1.32281449124425E+04 -3.68681459436773E-24  4.57900859678250E-03
 N8        5.81755111834047E-25  2.88774031671861E-03  1.03130460216233E-25  8.83743726767854E-02 -2.69353181184376E-24 -7.47538093102711E-03
 N11       4.28171369737004E-25 -1.01072649074790E-02  7.76186552849994E-27  8.66010812842839E-02 -1.56701926046180E-25 -2.24619914703659E-04
 N13       1.39979936125049E-24  1.04039196100246E-02 -9.78439957963725E-25  1.32281061457384E+04 -2.25837782918751E-24 -1.41734965665276E-03
 N14      -1.38822355030700E-24 -2.24636310911323E-04  1.64049548900477E-24  8.66010484899503E-02 -2.71342271933882E-24 -1.42133192434185E-02
 N15       4.82001268068139E-25  1.01072649074790E-02  9.17934502948457E-25  8.66010812842839E-02  1.63673333428048E-25  2.24660905235194E-04
 N16      -8.40305131331838E-25  2.24644509017630E-04 -1.31059417602719E-24  8.66010894804818E-02  1.11364919524876E-24  1.42132782528869E-02
 N18      -1.75423038939462E-25 -1.04039442008510E-02  4.05997046747218E-24  1.32281061456647E+04 -5.84559423280255E-25  1.41748900466888E-03
 N20      -4.41064473347781E-26 -1.41743982304737E-03  1.23617659291753E-24  1.32281061459398E+04 -5.77098397036865E-25  1.45095302092463E-02
 N21       1.60626383218119E-24  1.41739473986568E-03 -1.29145996515542E-25  1.32281061459398E+04 -2.27977969028147E-24 -1.45094728306514E-02
 N23       9.38058267410854E-26  1.63962126098482E-08 -1.58891340687482E-24  2.81509853550720E-02 -1.27145313001478E-24  1.63962126107156E-08
 N25       2.54254515278721E-24 -3.59436579996236E-08  5.85044490860869E-25  1.32280244502823E+04 -6.75562123770754E-25  4.09847106357109E-08
 

 ------>
 CHAMP AUX NOEUDS DE NOM SYMBOLIQUE  PRAC_NOEU                                   
 NUMERO D'ORDRE: 1 FREQ:   9.20000000000000E+01                                  
 NOEUD        PRES_R       PRES_I  
 N1       -1.61995754888175E-12 -2.64559144728036E+04
 N2       -1.61995754893106E-12 -2.64559144736089E+04
 N3       -1.62018762601620E-12 -2.64596719175560E+04
 N4       -1.62018762602402E-12 -2.64596719176836E+04
 N5       -1.61995754893106E-12 -2.64559144736088E+04
 N6       -1.62018762602402E-12 -2.64596719176836E+04
 N7       -1.61995754888176E-12 -2.64559144728036E+04
 N8       -1.62018762601620E-12 -2.64596719175560E+04
 N11      -1.62018762587357E-12 -2.64596719152265E+04
 N13      -1.61995754910913E-12 -2.64559144765170E+04
 N14      -1.62018762583786E-12 -2.64596719146435E+04
 N15      -1.62018762587357E-12 -2.64596719152265E+04
 N16      -1.62018762583786E-12 -2.64596719146435E+04
 N18      -1.61995754910914E-12 -2.64559144765170E+04
 N20      -1.61995754914484E-12 -2.64559144771001E+04
 N21      -1.61995754914484E-12 -2.64559144771001E+04
 N23      -1.62018762553244E-12 -2.64596719096556E+04
 N25      -1.61995754960843E-12 -2.64559144846712E+04
 
   
   !----------------------------------------------------------------------------------------------------------------!
   ! <EXCEPTION> <MATRICE0_12>                                                                                      !
   !                                                                                                                !
   !  Une des charges renseignées pour l'assemblage des vecteurs est déjà présente dans le mot-clé                  !
   !  CHARGE définissant les conditions de Dirichlet. Il est interdit de renseigner plus d'une fois la même charge. !
   !----------------------------------------------------------------------------------------------------------------!
   

 --------------------------------------------------------------------------------
 ASTER 11.03.00 CONCEPT Pr_7 CALCULE LE 27/06/2016 A 15:40:23 DE TYPE ACOU_HARMO 

                    ENTITES TOPOLOGIQUES SELECTIONNEES 
 GROUP_MA : ENTREE SORTIE                                                        


 ======>

 ------>
 CHAMP AUX NOEUDS DE NOM SYMBOLIQUE  INTE_NOEU                                   
 NUMERO D'ORDRE: 1 FREQ:   1.04000000000000E+02                                  
 NOEUD        INTX_R       INTX_I       INTY_R       INTY_I       INTZ_R       INTZ_I  
 N1       -2.93510838887213E-24 -5.16164029900141E-03 -1.35974376511135E-24  1.17015587384922E+04  2.05103262787067E-24 -5.17607889326547E-03
 N2       -9.62578685222814E-25  4.58953072549500E-03 -2.94462969475023E-24  1.17015148513906E+04  8.05247391186302E-25  8.83116509368395E-03
 N3        2.12284853101799E-24 -3.26433814215394E-03 -1.82596250413066E-24  9.99035468610350E-02  2.75134970499957E-25  8.45072435530141E-03
 N4       -5.52613232905499E-24  6.62341732594008E-03  4.50311856911006E-25  1.29707456969841E-01  9.28269091906529E-25 -6.75033449769392E-03
 N5       -2.73631342601705E-25 -4.58959743423792E-03  2.25354210338849E-25  1.17015148515573E+04  1.28551935574106E-24 -8.83109838494099E-03
 N6        1.00655557990858E-24 -6.62345052218555E-03 -6.43870994491517E-25  1.29707514709038E-01  2.33939741045837E-24  6.75028317396275E-03
 N7       -2.61514667341875E-24  5.16157421072480E-03  1.80829638670726E-24  1.17015587384858E+04 -2.57967605966587E-24  5.17611096477651E-03
 N8        1.45154394135060E-24  3.26441512775072E-03  6.83695969764281E-26  9.99036289790049E-02 -1.39411626812158E-24 -8.45077054665948E-03
 N11       3.03103054713266E-24 -1.14257531893124E-02  8.97575438572883E-25  9.78990420694464E-02  8.55276200572860E-25 -2.54100585324677E-04
 N13      -8.31137922691454E-25  1.17607000676916E-02  1.72282172990476E-24  1.17015149166925E+04 -3.27012222157812E-25 -1.60226703403582E-03
 N14       1.30119810199955E-25 -2.54071715716747E-04 -4.90240168340122E-25  9.78990484813899E-02 -4.09088467372296E-25 -1.60675933302536E-02
 N15      -9.56748167977784E-25  1.14258045130435E-02 -3.28769341027567E-24  9.78989330065176E-02  1.40451217343912E-24  2.54090962125081E-04
 N16       4.82938773347859E-25  2.54116623981525E-04 -3.54334803869277E-25  9.78990099885915E-02  1.36736596220029E-24  1.60675740838544E-02
 N18      -1.59883334431355E-24 -1.17607513821092E-02 -1.13666652288934E-24  1.17015149166284E+04  1.02426345807744E-24  1.60238890577775E-03
 N20      -1.23353902405868E-24 -1.60236324862660E-03 -1.52945614481698E-24  1.17015149170432E+04 -1.30836147182790E-24  1.64016978726473E-02
 N21      -2.38328643667283E-25  1.60229269130232E-03 -1.05220160804551E-24  1.17015149171265E+04  6.32928305629919E-25 -1.64016914583450E-02
 N23       2.28359592764037E-24  2.56618655795557E-08 -3.68045516303405E-24  3.18235361240819E-02  3.92834019331393E-25  6.41546639597312E-09
 N25      -9.69012634500981E-25 -4.70847052441020E-08 -2.71448930752723E-24  1.17014225684878E+04  2.93579467917816E-25  5.13144176803038E-08
 

 ------>
 CHAMP AUX NOEUDS DE NOM SYMBOLIQUE  PRAC_NOEU                                   
 NUMERO D'ORDRE: 1 FREQ:   1.04000000000000E+02                                  
 NOEUD        PRES_R       PRES_I  
 N1       -1.43300166438936E-12 -2.34026931746700E+04
 N2       -1.43300166446059E-12 -2.34026931758333E+04
 N3       -1.43326175350719E-12 -2.34069407523064E+04
 N4       -1.43326175351848E-12 -2.34069407524908E+04
 N5       -1.43300166446059E-12 -2.34026931758332E+04
 N6       -1.43326175351848E-12 -2.34069407524908E+04
 N7       -1.43300166438936E-12 -2.34026931746700E+04
 N8       -1.43326175350719E-12 -2.34069407523064E+04
 N11      -1.43326175330114E-12 -2.34069407489414E+04
 N13      -1.43300166471783E-12 -2.34026931800343E+04
 N14      -1.43326175324956E-12 -2.34069407480991E+04
 N15      -1.43326175330114E-12 -2.34069407489413E+04
 N16      -1.43326175324956E-12 -2.34069407480991E+04
 N18      -1.43300166471783E-12 -2.34026931800343E+04
 N20      -1.43300166476941E-12 -2.34026931808766E+04
 N21      -1.43300166476940E-12 -2.34026931808766E+04
 N23      -1.43326175280836E-12 -2.34069407408937E+04
 N25      -1.43300166543910E-12 -2.34026931918136E+04
 
   
   !----------------------------------------------------------------------------------------------------------------!
   ! <EXCEPTION> <MATRICE0_12>                                                                                      !
   !                                                                                                                !
   !  Une des charges renseignées pour l'assemblage des vecteurs est déjà présente dans le mot-clé                  !
   !  CHARGE définissant les conditions de Dirichlet. Il est interdit de renseigner plus d'une fois la même charge. !
   !----------------------------------------------------------------------------------------------------------------!
   

 --------------------------------------------------------------------------------
 ASTER 11.03.00 CONCEPT Pr_8 CALCULE LE 27/06/2016 A 15:40:23 DE TYPE ACOU_HARMO 

                    ENTITES TOPOLOGIQUES SELECTIONNEES 
 GROUP_MA : ENTREE SORTIE                                                        


 ======>

 ------>
 CHAMP AUX NOEUDS DE NOM SYMBOLIQUE  INTE_NOEU                                   
 NUMERO D'ORDRE: 1 FREQ:   1.16000000000000E+02                                  
 NOEUD        INTX_R       INTX_I       INTY_R       INTY_I       INTZ_R       INTZ_I  
 N1        3.13984032629067E-24 -5.75705107967208E-03  1.27613713093241E-24  1.04907892372397E+04  1.07692238358605E-24 -5.77321934191785E-03
 N2       -2.40861838522972E-24  5.11902856055826E-03 -8.40024530267474E-25  1.04907402875027E+04  1.13754663832274E-24  9.84994870972442E-03
 N3       -6.90285182463814E-25 -3.64119288877048E-03  4.15871241038657E-25  1.11433727060893E-01 -3.47975780127072E-25  9.42600999955727E-03
 N4       -1.88087873682473E-24  7.38783118963176E-03  5.27082277566901E-25  1.44677344036044E-01 -1.01522008759915E-25 -7.52942825348036E-03
 N5       -3.23499397248250E-24 -5.11909455346538E-03 -1.74994339891498E-24  1.04907402875641E+04 -1.84084145079046E-25 -9.84986209403380E-03
 N6        1.59461549721300E-24 -7.38786898326556E-03  9.01855625666475E-25  1.44677359506625E-01 -1.05230140647319E-24  7.52937668487965E-03
 N7        7.61063136924550E-26  5.75704683529125E-03 -1.62820890837617E-26  1.04907892372139E+04  1.25093170795287E-24  5.77327605457242E-03
 N8       -1.07743704586233E-25  3.64121351621078E-03  7.15689919903503E-25  1.11433739437358E-01  5.13194650344379E-25 -9.42598112114088E-03
 N11      -6.80871761249336E-25 -1.27444422332127E-02  1.56940595270576E-24  1.09197816678110E-01 -3.20677967776547E-26 -2.83382353023307E-04
 N13      -1.19326364878689E-24  1.31174204653975E-02  3.51440688719582E-25  1.04907403608299E+04  9.48269741604177E-25 -1.78710339268240E-03
 N14       2.14325616778612E-25 -2.83364303997278E-04 -3.84200440450726E-25  1.09197775417148E-01 -9.54633513076658E-25 -1.79219761547217E-02
 N15      -3.07882417676539E-24  1.27443855077519E-02  1.42188910248158E-24  1.09197790893810E-01 -9.63121380033852E-26  2.83384931453342E-04
 N16      -7.80202890767138E-27  2.83400402017770E-04  3.06339517045418E-25  1.09197796044588E-01 -1.31473948889862E-24  1.79219297429811E-02
 N18       2.82196520137615E-24 -1.31174359324851E-02 -1.02948241397515E-24  1.04907403607886E+04  7.58470296440502E-27  1.78717041672872E-03
 N20       3.96600746616612E-25 -1.78714979404480E-03  2.03866901458077E-25  1.04907403613885E+04  8.35893164479954E-25  1.82938422348333E-02
 N21      -7.01931953259111E-25  1.78712143771750E-03  3.21602813840502E-25  1.04907403614091E+04  1.55095434648789E-24 -1.82937752107870E-02
 N23      -4.54512999506338E-25  2.06274402706277E-08 -4.05483174086873E-25  3.54964005512405E-02  6.31533217541284E-25  1.03137201357476E-08
 N25      -1.89417193536105E-24 -3.25084434059375E-08 -8.29654480351801E-25  1.04906373608985E+04 -1.02680761727565E-24  2.06227834999989E-08
 

 ------>
 CHAMP AUX NOEUDS DE NOM SYMBOLIQUE  PRAC_NOEU                                   
 NUMERO D'ORDRE: 1 FREQ:   1.16000000000000E+02                                  
 NOEUD        PRES_R       PRES_I  
 N1       -1.28472216780641E-12 -2.09811052248024E+04
 N2       -1.28472216790525E-12 -2.09811052264166E+04
 N3       -1.28501226961383E-12 -2.09858429468562E+04
 N4       -1.28501226962950E-12 -2.09858429471121E+04
 N5       -1.28472216790524E-12 -2.09811052264166E+04
 N6       -1.28501226962950E-12 -2.09858429471121E+04
 N7       -1.28472216780641E-12 -2.09811052248025E+04
 N8       -1.28501226961383E-12 -2.09858429468563E+04
 N11      -1.28501226932791E-12 -2.09858429421868E+04
 N13      -1.28472216826220E-12 -2.09811052322462E+04
 N14      -1.28501226925634E-12 -2.09858429410180E+04
 N15      -1.28501226932791E-12 -2.09858429421868E+04
 N16      -1.28501226925634E-12 -2.09858429410180E+04
 N18      -1.28472216826220E-12 -2.09811052322462E+04
 N20      -1.28472216833377E-12 -2.09811052334150E+04
 N21      -1.28472216833377E-12 -2.09811052334150E+04
 N23      -1.28501226864410E-12 -2.09858429310194E+04
 N25      -1.28472216926307E-12 -2.09811052485917E+04
 
   
   !----------------------------------------------------------------------------------------------------------------!
   ! <EXCEPTION> <MATRICE0_12>                                                                                      !
   !                                                                                                                !
   !  Une des charges renseignées pour l'assemblage des vecteurs est déjà présente dans le mot-clé                  !
   !  CHARGE définissant les conditions de Dirichlet. Il est interdit de renseigner plus d'une fois la même charge. !
   !----------------------------------------------------------------------------------------------------------------!
   

 --------------------------------------------------------------------------------
 ASTER 11.03.00 CONCEPT Pr_9 CALCULE LE 27/06/2016 A 15:40:23 DE TYPE ACOU_HARMO 

                    ENTITES TOPOLOGIQUES SELECTIONNEES 
 GROUP_MA : ENTREE SORTIE                                                        


 ======>

 ------>
 CHAMP AUX NOEUDS DE NOM SYMBOLIQUE  INTE_NOEU                                   
 NUMERO D'ORDRE: 1 FREQ:   1.28000000000000E+02                                  
 NOEUD        INTX_R       INTX_I       INTY_R       INTY_I       INTZ_R       INTZ_I  
 N1       -1.14319595801673E-24 -6.35244609618288E-03 -9.57664517163825E-25  9.50701296754627E+03  1.21539207983354E-24 -6.37029527319799E-03
 N2       -7.97457288036477E-25  5.64852206282759E-03 -3.00802129491634E-25  9.50695895560805E+03 -1.91556617022984E-25  1.08685791936854E-02
 N3        1.16614812593431E-24 -4.01795557306093E-03  1.76252899542081E-24  1.22964793142650E-01 -4.99879447288075E-25  1.04013446441988E-02
 N4        6.24380399142823E-25  8.15233053664525E-03  5.83806442233231E-25  1.59648367032202E-01 -2.00738031668102E-25 -8.30853842514501E-03
 N5        6.09422015533201E-25 -5.64852206282759E-03 -1.67051709644498E-25  9.50695895562740E+03 -2.49462127010493E-25 -1.08685741126719E-02
 N6        1.28097339986775E-25 -8.15228878362103E-03  2.74693347830361E-25  1.59648415738637E-01 -7.14154850046962E-25  8.30848124802625E-03
 N7       -2.11418305888189E-25  6.35244770228456E-03  6.06350046189079E-25  9.50701296755263E+03  1.77849152509313E-25  6.37033338079926E-03
 N8        7.53491520909302E-25  4.01796234960834E-03  7.77561652963591E-25  1.22964752483366E-01 -2.38846054759271E-25 -1.04013751386621E-02
 N11       9.29625935401941E-25 -1.40631570693235E-02  1.67157471817764E-24  1.20497486920534E-01  5.38177831027081E-25 -3.12747192412505E-04
 N13      -8.04031597911766E-26  1.44740502912775E-02  8.17032705868265E-25  9.50695903717367E+03 -4.37339249058417E-25 -1.97194134120461E-03
 N14       1.10466463383577E-24 -3.12699544787720E-04  9.13040746545020E-26  1.20497457263189E-01 -4.02447385219353E-25 -1.97764747759775E-02
 N15       7.49885134860858E-26  1.40631888343895E-02  8.36578615273113E-25  1.20497484802863E-01 -2.12692147195602E-25  3.12691074129280E-04
 N16       2.88959678389253E-25  3.12737662866889E-04  1.40372081384744E-24  1.20497501734282E-01 -2.13157200205289E-25  1.97764493639248E-02
 N18      -1.34557425978366E-24 -1.44740735792560E-02 -1.71807594269895E-25  9.50695903716521E+03  2.99193282077360E-25  1.97195827791630E-03
 N20       8.52440173990547E-27 -1.97194557554541E-03  1.44595048483391E-25  9.50695903794407E+03 -5.23638947478673E-25  2.01857954091391E-02
 N21       7.57169198463719E-25  1.97195616099021E-03 -3.25389346185563E-25  9.50695903794407E+03  1.26870862577354E-24 -2.01857678869826E-02
 N23       5.99887389167679E-25  2.11767106367972E-09  2.69462224718563E-24  3.91696637675643E-02  3.97523859813062E-25 -1.27060263803436E-08
 N25       1.05409780086118E-25 -3.28875448922517E-09  1.36062728932520E-24  9.50684538680551E+03 -3.64678402273463E-25 -2.11708896073748E-09
 

 ------>
 CHAMP AUX NOEUDS DE NOM SYMBOLIQUE  PRAC_NOEU                                   
 NUMERO D'ORDRE: 1 FREQ:   1.28000000000000E+02                                  
 NOEUD        PRES_R       PRES_I  
 N1       -1.16424132489526E-12 -1.90135037417458E+04
 N2       -1.16424132502806E-12 -1.90135037439145E+04
 N3       -1.16456144018000E-12 -1.90187316210815E+04
 N4       -1.16456144020105E-12 -1.90187316214253E+04
 N5       -1.16424132502806E-12 -1.90135037439145E+04
 N6       -1.16456144020105E-12 -1.90187316214253E+04
 N7       -1.16424132489526E-12 -1.90135037417459E+04
 N8       -1.16456144018000E-12 -1.90187316210815E+04
 N11      -1.16456143979584E-12 -1.90187316148077E+04
 N13      -1.16424132550766E-12 -1.90135037517470E+04
 N14      -1.16456143969968E-12 -1.90187316132373E+04
 N15      -1.16456143979584E-12 -1.90187316148077E+04
 N16      -1.16456143969968E-12 -1.90187316132373E+04
 N18      -1.16424132550766E-12 -1.90135037517470E+04
 N20      -1.16424132560382E-12 -1.90135037533174E+04
 N21      -1.16424132560382E-12 -1.90135037533174E+04
 N23      -1.16456143887710E-12 -1.90187315998036E+04
 N25      -1.16424132685240E-12 -1.90135037737083E+04
 
   
   !----------------------------------------------------------------------------------------------------------------!
   ! <EXCEPTION> <MATRICE0_12>                                                                                      !
   !                                                                                                                !
   !  Une des charges renseignées pour l'assemblage des vecteurs est déjà présente dans le mot-clé                  !
   !  CHARGE définissant les conditions de Dirichlet. Il est interdit de renseigner plus d'une fois la même charge. !
   !----------------------------------------------------------------------------------------------------------------!
   

 --------------------------------------------------------------------------------
 ASTER 11.03.00 CONCEPT Pr_10 CALCULE LE 27/06/2016 A 15:40:23 DE TYPE ACOU_HARMO

                    ENTITES TOPOLOGIQUES SELECTIONNEES 
 GROUP_MA : ENTREE SORTIE                                                        


 ======>

 ------>
 CHAMP AUX NOEUDS DE NOM SYMBOLIQUE  INTE_NOEU                                   
 NUMERO D'ORDRE: 1 FREQ:   1.40000000000000E+02                                  
 NOEUD        INTX_R       INTX_I       INTY_R       INTY_I       INTZ_R       INTZ_I  
 N1       -4.26531574241489E-25 -6.94779934293211E-03  4.71196085019373E-25  8.69186023959966E+03 -6.49226487513462E-25 -6.96736105257755E-03
 N2        5.82884611672420E-25  6.17792838767593E-03 -4.82071005914388E-25  8.69180116583149E+03  5.95040183136185E-25  1.18871827041246E-02
 N3        1.90872335105597E-25 -4.39483173077594E-03  5.93593945872678E-25  1.34496793419085E-01  7.83170399110709E-25  1.13768051027361E-02
 N4        3.22490462433326E-26  8.91683197063918E-03  7.54182159589582E-25  1.74620733070006E-01 -5.66518287032715E-25 -9.08770715306166E-03
 N5        5.52156933653059E-25 -6.17790856759740E-03  3.30145230810959E-25  8.69180116583248E+03  2.88037437216566E-25 -1.18871657154858E-02
 N6        7.35551170908535E-25 -8.91678797149678E-03 -8.28227514944802E-25  1.74620731299774E-01 -2.63144657227486E-25  9.08768236981393E-03
 N7        3.34315687410413E-25  6.94779713355657E-03  1.00320387950042E-24  8.69186023960674E+03  2.36036280024881E-25  6.96735751327782E-03
 N8       -3.36713105164858E-25  4.39480623943541E-03 -3.00284976240740E-25  1.34496760846817E-01  2.25016827009712E-25 -1.13767937732514E-02
 N11       8.83029290296355E-26 -1.53819917730326E-02 -1.26011646488300E-24  1.31798120374005E-01 -5.21492161080066E-25 -3.42058385039304E-04
 N13       1.74695266220961E-25  1.58305710265526E-02  7.88961879416880E-25  8.69180125586256E+03 -5.08885954566859E-25 -2.15676431805297E-03
 N14      -5.40242474847932E-25 -3.42053074302944E-04  9.11898896577360E-25  1.31798122128663E-01 -1.46125198283462E-25 -2.16311213176258E-02
 N15       8.09244135587749E-25  1.53820112455844E-02 -7.28267065043549E-25  1.31798127454933E-01  3.81207872282876E-25  3.42042452951484E-04
 N16       3.13323750827312E-25  3.42047763607005E-04  2.03732288199428E-26  1.31798138060750E-01  8.13742842352098E-25  2.16311177771618E-02
 N18       1.20010638254577E-25 -1.58305710265526E-02  4.94369662971145E-25  8.69180125586256E+03 -1.68636655362976E-25  2.15676608770284E-03
 N20      -3.12415351543044E-25 -2.15676431830791E-03  5.65253548470685E-25  8.69180125690237E+03 -5.77761129945586E-26  2.20776155736533E-02
 N21       2.78339476849137E-26  2.15676608795778E-03  9.10787246731971E-26  8.69180125688821E+03  1.38772120630122E-25 -2.20776014164543E-02
 N23      -6.90884002588069E-25 -1.77023197801829E-08  7.26084295778081E-25  4.28431189279349E-02  4.23453953838539E-25  5.31069593336098E-09
 N25       9.82353018128343E-26 -8.95423435051668E-10 -6.12408497941176E-26  8.69167695644460E+03  1.01245007618525E-26  1.76964987108619E-09
 

 ------>
 CHAMP AUX NOEUDS DE NOM SYMBOLIQUE  PRAC_NOEU                                   
 NUMERO D'ORDRE: 1 FREQ:   1.40000000000000E+02                                  
 NOEUD        PRES_R       PRES_I  
 N1       -1.06441091028225E-12 -1.73831493459720E+04
 N2       -1.06441091045601E-12 -1.73831493488096E+04
 N3       -1.06476103991353E-12 -1.73888673967851E+04
 N4       -1.06476103994108E-12 -1.73888673972350E+04
 N5       -1.06441091045601E-12 -1.73831493488096E+04
 N6       -1.06476103994108E-12 -1.73888673972350E+04
 N7       -1.06441091028225E-12 -1.73831493459720E+04
 N8       -1.06476103991353E-12 -1.73888673967851E+04
 N11      -1.06476103941088E-12 -1.73888673885762E+04
 N13      -1.06441091108354E-12 -1.73831493590580E+04
 N14      -1.06476103928506E-12 -1.73888673865214E+04
 N15      -1.06476103941088E-12 -1.73888673885762E+04
 N16      -1.06476103928506E-12 -1.73888673865214E+04
 N18      -1.06441091108354E-12 -1.73831493590580E+04
 N20      -1.06441091120936E-12 -1.73831493611128E+04
 N21      -1.06441091120936E-12 -1.73831493611128E+04
 N23      -1.06476103820875E-12 -1.73888673689439E+04
 N25      -1.06441091284307E-12 -1.73831493877933E+04
 
   
   !----------------------------------------------------------------------------------------------------------------!
   ! <EXCEPTION> <MATRICE0_12>                                                                                      !
   !                                                                                                                !
   !  Une des charges renseignées pour l'assemblage des vecteurs est déjà présente dans le mot-clé                  !
   !  CHARGE définissant les conditions de Dirichlet. Il est interdit de renseigner plus d'une fois la même charge. !
   !----------------------------------------------------------------------------------------------------------------!
   

 --------------------------------------------------------------------------------
 ASTER 11.03.00 CONCEPT Pr_11 CALCULE LE 27/06/2016 A 15:40:23 DE TYPE ACOU_HARMO

                    ENTITES TOPOLOGIQUES SELECTIONNEES 
 GROUP_MA : ENTREE SORTIE                                                        


 ======>

 ------>
 CHAMP AUX NOEUDS DE NOM SYMBOLIQUE  INTE_NOEU                                   
 NUMERO D'ORDRE: 1 FREQ:   1.52000000000000E+02                                  
 NOEUD        INTX_R       INTX_I       INTY_R       INTY_I       INTZ_R       INTZ_I  
 N1        1.67800041722933E-25 -7.54311212723993E-03  7.08460201760886E-25  8.00539389680099E+03  1.01215838231540E-24 -7.56436164555303E-03
 N2       -4.74067330198757E-25  6.70729854242071E-03 -5.48855339061675E-25  8.00532976171049E+03  6.38639579813184E-26  1.29056714964279E-02
 N3        2.41586258581903E-26 -4.77168926224460E-03 -4.21994000670118E-25  1.46029901325088E-01  2.78255841444261E-25  1.23523136665308E-02
 N4        8.23378789094580E-27  9.68139130992383E-03 -3.55794938412150E-25  1.89594500350376E-01  1.78005284660199E-25 -9.86695479417051E-03
 N5        2.30798914594063E-25 -6.70731775780993E-03 -1.10849472224208E-25  8.00532976173599E+03  4.90083018388524E-25 -1.29056678935424E-02
 N6       -1.98187187199920E-25 -9.68139759673155E-03 -4.81077886734092E-26  1.89594495845023E-01  4.80328971854811E-25  9.86695329238611E-03
 N7       -4.75587800019743E-26  7.54310376523889E-03 -9.05486101448886E-26  8.00539389680698E+03 -1.21256230849113E-25  7.56435714194617E-03
 N8       -2.41586255548564E-26  4.77168926224461E-03  1.34211087652766E-25  1.46029916943646E-01 -4.98954496667791E-25 -1.23523172708134E-02
 N11       5.35319394427755E-26 -1.67009673722101E-02 -2.20950536777231E-25  1.43099867901809E-01  1.97971259651817E-25 -3.71368755525098E-04
 N13      -3.31953794815647E-25  1.71869572073400E-02 -4.01372428576451E-26  8.00532986045701E+03  1.93402140562196E-25 -2.34152878589716E-03
 N14       1.39104385175709E-25 -3.71371759032922E-04  6.35147740942262E-26  1.43099873885450E-01  4.08716654270580E-25 -2.34859361800471E-02
 N15       2.28379232795756E-25  1.67009583615037E-02 -1.08038431908590E-24  1.43099863396456E-01  4.48111607466009E-26  3.71374762662701E-04
 N16       2.76271767706149E-26  3.71371759032922E-04 -2.72502487925789E-25  1.43099858867606E-01  4.91122951841313E-25  2.34859331764782E-02
 N18      -8.45856553979721E-25 -1.71869737205651E-02  2.01241572365501E-25  8.00532986045552E+03  7.37755837034506E-26  2.34153178830173E-03
 N20      -6.77400710047713E-26 -2.34154529950691E-03 -2.92623219626303E-25  8.00532986175693E+03 -6.32764059820553E-26  2.39692885515299E-02
 N21      -6.23664271944916E-26  2.34151527546121E-03  6.09530733358930E-25  8.00532986176895E+03  8.88022415055272E-25 -2.39692900527322E-02
 N23       1.58139569803353E-25 -1.50178439909526E-09 -3.16398637204187E-26  4.65170028248442E-02 -1.58139569803353E-25  1.50178439909526E-09
 N25      -6.87092925770563E-26 -1.27092329924028E-08 -1.91850972149750E-26  8.00519491351646E+03  1.00510790353244E-25  3.00240457669354E-09
 

 ------>
 CHAMP AUX NOEUDS DE NOM SYMBOLIQUE  PRAC_NOEU                                   
 NUMERO D'ORDRE: 1 FREQ:   1.52000000000000E+02                                  
 NOEUD        PRES_R       PRES_I  
 N1       -9.80340032896892E-13 -1.60101677247586E+04
 N2       -9.80340033119265E-13 -1.60101677283902E+04
 N3       -9.80720177825477E-13 -1.60163759625762E+04
 N4       -9.80720177860732E-13 -1.60163759631520E+04
 N5       -9.80340033119264E-13 -1.60101677283902E+04
 N6       -9.80720177860732E-13 -1.60163759631520E+04
 N7       -9.80340032896891E-13 -1.60101677247586E+04
 N8       -9.80720177825477E-13 -1.60163759625762E+04
 N11      -9.80720177182167E-13 -1.60163759520702E+04
 N13      -9.80340033922399E-13 -1.60101677415064E+04
 N14      -9.80720177021139E-13 -1.60163759494404E+04
 N15      -9.80720177182168E-13 -1.60163759520702E+04
 N16      -9.80720177021139E-13 -1.60163759494404E+04
 N18      -9.80340033922400E-13 -1.60101677415064E+04
 N20      -9.80340034083427E-13 -1.60101677441362E+04
 N21      -9.80340034083428E-13 -1.60101677441362E+04
 N23      -9.80720175643644E-13 -1.60163759269442E+04
 N25      -9.80340036174293E-13 -1.60101677782826E+04
 
   
   !----------------------------------------------------------------------------------------------------------------!
   ! <EXCEPTION> <MATRICE0_12>                                                                                      !
   !                                                                                                                !
   !  Une des charges renseignées pour l'assemblage des vecteurs est déjà présente dans le mot-clé                  !
   !  CHARGE définissant les conditions de Dirichlet. Il est interdit de renseigner plus d'une fois la même charge. !
   !----------------------------------------------------------------------------------------------------------------!
   

 --------------------------------------------------------------------------------
 ASTER 11.03.00 CONCEPT Pr_12 CALCULE LE 27/06/2016 A 15:40:23 DE TYPE ACOU_HARMO

                    ENTITES TOPOLOGIQUES SELECTIONNEES 
 GROUP_MA : ENTREE SORTIE                                                        


 ======>

 ------>
 CHAMP AUX NOEUDS DE NOM SYMBOLIQUE  INTE_NOEU                                   
 NUMERO D'ORDRE: 1 FREQ:   1.64000000000000E+02                                  
 NOEUD        INTX_R       INTX_I       INTY_R       INTY_I       INTZ_R       INTZ_I  
 N1        5.31038355880535E-25 -8.13835342645402E-03 -6.76299920376836E-25  7.41936570630786E+03  7.58031327970195E-26 -8.16131678542327E-03
 N2       -5.76698385212794E-25  7.23664158722937E-03  3.62800285754764E-26  7.41929651044014E+03 -4.89178877942031E-25  1.39240782354704E-02
 N3        5.77833906312249E-26 -5.14860074440863E-03 -3.19726240858358E-26  1.57564209343740E-01  2.77258283033962E-26  1.33279323001074E-02
 N4        3.74170888131428E-25  1.04460425389884E-02  1.52680795724708E-25  2.04569811915662E-01 -3.57347028857538E-25 -1.06462911696265E-02
 N5       -1.93111042832967E-25 -7.23665602959350E-03 -1.10122458013957E-25  7.41929651045695E+03  9.59791870876632E-26 -1.39240668878986E-02
 N6        7.41327697716839E-25 -1.04460236622645E-02  3.42387115073705E-25  2.04569832556925E-01 -6.79157006062695E-25  1.06462602077324E-02
 N7        5.81763786393443E-25  8.13834938070032E-03 -3.38326665031188E-25  7.41936570631688E+03  5.26048613524045E-26  8.16131420642967E-03
 N8       -7.37420076185792E-26  5.14860796885061E-03  8.26094005189520E-26  1.57564209343740E-01 -3.73227172944584E-25 -1.33279426207388E-02
 N11       2.44211582570765E-25 -1.80200326671339E-02  1.36935503760976E-25  1.54402784885747E-01 -2.57940596080764E-26 -4.00720444554314E-04
 N13       5.93866179845140E-25  1.85432296101637E-02 -2.49784917029181E-25  7.41929661811778E+03  3.53339991189892E-26 -2.52628154842310E-03
 N14       1.98622107470809E-25 -4.00706253597008E-04  6.01327943117846E-25  1.54402778400995E-01 -6.47209250849396E-25 -2.53409493073607E-02
 N15       1.50761173586075E-25  1.80200391175285E-02  3.07492092902124E-25  1.54402777145273E-01 -9.01044164490950E-26  4.00712704080781E-04
 N16       1.34311750647846E-25  4.00726894859758E-04  3.59157586865368E-25  1.54402786141469E-01 -4.04056352546840E-25  2.53409157653088E-02
 N18       4.29894326309738E-26 -1.85432308996605E-02 -8.39524707997926E-25  7.41929661810230E+03 -3.31409055208675E-26  2.52629444339109E-03
 N20       3.31409054486452E-26 -2.52629444395348E-03  7.16916790664856E-27  7.41929661976425E+03 -3.92382799656588E-25  2.58607899722333E-02
 N21      -3.53339991430633E-26  2.52628154898548E-03 -2.15125524297391E-25  7.41929661976296E+03  7.65471745604612E-26 -2.58607951302205E-02
 N23       1.80131456845078E-25  6.45039459692964E-09 -6.68353631263536E-26  5.01912582837882E-02 -7.38078504448494E-27 -1.29007892042676E-09
 N25      -2.44254174607781E-25 -5.71495923501475E-09 -4.99064963079021E-26  7.41915102531643E+03 -2.56815990173620E-25  5.15798721269223E-09
 

 ------>
 CHAMP AUX NOEUDS DE NOM SYMBOLIQUE  PRAC_NOEU                                   
 NUMERO D'ORDRE: 1 FREQ:   1.64000000000000E+02                                  
 NOEUD        PRES_R       PRES_I  
 N1       -9.08569281967993E-13 -1.48380624127801E+04
 N2       -9.08569282247302E-13 -1.48380624173416E+04
 N3       -9.08979443226167E-13 -1.48447608544608E+04
 N4       -9.08979443270450E-13 -1.48447608551840E+04
 N5       -9.08569282247300E-13 -1.48380624173416E+04
 N6       -9.08979443270452E-13 -1.48447608551840E+04
 N7       -9.08569281967993E-13 -1.48380624127801E+04
 N8       -9.08979443226168E-13 -1.48447608544608E+04
 N11      -9.08979442418140E-13 -1.48447608412647E+04
 N13      -9.08569283256077E-13 -1.48380624338162E+04
 N14      -9.08979442215880E-13 -1.48447608379616E+04
 N15      -9.08979442418139E-13 -1.48447608412647E+04
 N16      -9.08979442215880E-13 -1.48447608379616E+04
 N18      -9.08569283256077E-13 -1.48380624338162E+04
 N20      -9.08569283458337E-13 -1.48380624371193E+04
 N21      -9.08569283458336E-13 -1.48380624371193E+04
 N23      -9.08979440485676E-13 -1.48447608097052E+04
 N25      -9.08569286084560E-13 -1.48380624800088E+04
 
   
   !----------------------------------------------------------------------------------------------------------------!
   ! <EXCEPTION> <MATRICE0_12>                                                                                      !
   !                                                                                                                !
   !  Une des charges renseignées pour l'assemblage des vecteurs est déjà présente dans le mot-clé                  !
   !  CHARGE définissant les conditions de Dirichlet. Il est interdit de renseigner plus d'une fois la même charge. !
   !----------------------------------------------------------------------------------------------------------------!
   

 --------------------------------------------------------------------------------
 ASTER 11.03.00 CONCEPT Pr_13 CALCULE LE 27/06/2016 A 15:40:23 DE TYPE ACOU_HARMO

                    ENTITES TOPOLOGIQUES SELECTIONNEES 
 GROUP_MA : ENTREE SORTIE                                                        


 ======>

 ------>
 CHAMP AUX NOEUDS DE NOM SYMBOLIQUE  INTE_NOEU                                   
 NUMERO D'ORDRE: 1 FREQ:   1.76000000000000E+02                                  
 NOEUD        INTX_R       INTX_I       INTY_R       INTY_I       INTZ_R       INTZ_I  
 N1       -1.95096630373682E-25 -8.73353762685903E-03 -1.06439424219661E-25  6.91323149870931E+03 -1.52799885383143E-25 -8.75821136652417E-03
 N2        3.86873626138710E-25  7.76594256459252E-03  4.66692635883647E-25  6.91315724260086E+03 -2.92914106230276E-25  1.49423845028259E-02
 N3        2.96259644924091E-25 -5.52557950893713E-03 -3.47872705666080E-25  1.69099798272618E-01 -8.99340141603092E-26  1.43036421149932E-02
 N4       -1.64099560024084E-25  1.12107490935668E-02 -4.27544077020748E-25  2.19546799670204E-01 -2.82749559563757E-25 -1.14256929571509E-02
 N5       -2.25386543455015E-25 -7.76595779114933E-03 -1.09365151544944E-25  6.91315724261789E+03  3.19865881564533E-26 -1.49423692762690E-02
 N6        1.10230879337956E-25 -1.12107475935729E-02 -2.21770003020384E-25  2.19546803030750E-01  1.45566841521226E-25  1.14256907167871E-02
 N7        6.43906455291432E-26  8.73351758596729E-03  8.20162905940182E-26  6.91323149872050E+03  2.51478662935180E-25  8.75820688812509E-03
 N8        1.27343998843814E-25  5.52558398966474E-03 -4.34062593454253E-25  1.69099817987819E-01 -1.38289319652386E-27 -1.43036232959373E-02
 N11       1.21278544188957E-25 -1.93392448524566E-02 -3.35574350132915E-25  1.65706960220667E-01 -1.29317664573034E-25 -4.30036710825987E-04
 N13      -2.89073308574954E-25  1.98993408481599E-02 -1.62215045662407E-25  6.91315735949660E+03 -1.04587474468522E-25 -2.71102127290621E-03
 N14       2.51862355548951E-26 -4.30042311608560E-04 -4.38877283423088E-26  1.65706956811215E-01  9.81129584612680E-26 -2.71961144296770E-02
 N15       2.04078123587681E-26  1.93392370111833E-02 -4.74662199244028E-25  1.65706946778484E-01 -7.26461445487227E-26  4.30055753918269E-04
 N16       8.18577555671693E-26  4.30050152881850E-04 -3.86844526560216E-25  1.65706951210305E-01  5.82960749831653E-26  2.71961200305865E-02
 N18      -4.92039609753924E-26 -1.98993565225566E-02  2.58140531737282E-25  6.91315735948317E+03  2.70291649964718E-26  2.71104030610229E-03
 N20      -1.21206644987087E-25 -2.71104590490168E-03  1.95965670631383E-25  6.91315736152457E+03  4.93328969777512E-26  2.77521173512771E-02
 N21       7.89657082011868E-26  2.71101679530767E-03 -1.21169035041947E-25  6.91315736152345E+03 -9.22668439522132E-26 -2.77521139924778E-02
 N23      -4.93650424818600E-26  2.24036379205261E-09  6.28021089479880E-26  5.38659403830186E-02  1.90513375284774E-27  1.12018189585283E-08
 N25       2.59507828945709E-25 -9.40740762025993E-09  4.79374994884704E-25  6.91300112260629E+03  7.04598575481364E-26  1.23155975122885E-08
 

 ------>
 CHAMP AUX NOEUDS DE NOM SYMBOLIQUE  PRAC_NOEU                                   
 NUMERO D'ORDRE: 1 FREQ:   1.76000000000000E+02                                  
 NOEUD        PRES_R       PRES_I  
 N1       -8.46582722382861E-13 -1.38257450715143E+04
 N2       -8.46582722728080E-13 -1.38257450771521E+04
 N3       -8.47022901084454E-13 -1.38329337352481E+04
 N4       -8.47022901139188E-13 -1.38329337361420E+04
 N5       -8.46582722728077E-13 -1.38257450771520E+04
 N6       -8.47022901139187E-13 -1.38329337361420E+04
 N7       -8.46582722382861E-13 -1.38257450715142E+04
 N8       -8.47022901084456E-13 -1.38329337352482E+04
 N11      -8.47022900085744E-13 -1.38329337189380E+04
 N13      -8.46582723974907E-13 -1.38257450975143E+04
 N14      -8.47022899835755E-13 -1.38329337148553E+04
 N15      -8.47022900085744E-13 -1.38329337189380E+04
 N16      -8.47022899835754E-13 -1.38329337148553E+04
 N18      -8.46582723974908E-13 -1.38257450975144E+04
 N20      -8.46582724224897E-13 -1.38257451015970E+04
 N21      -8.46582724224897E-13 -1.38257451015970E+04
 N23      -8.47022897697246E-13 -1.38329336799308E+04
 N25      -8.46582727470857E-13 -1.38257451546075E+04
 
   
   !----------------------------------------------------------------------------------------------------------------!
   ! <EXCEPTION> <MATRICE0_12>                                                                                      !
   !                                                                                                                !
   !  Une des charges renseignées pour l'assemblage des vecteurs est déjà présente dans le mot-clé                  !
   !  CHARGE définissant les conditions de Dirichlet. Il est interdit de renseigner plus d'une fois la même charge. !
   !----------------------------------------------------------------------------------------------------------------!
   

 --------------------------------------------------------------------------------
 ASTER 11.03.00 CONCEPT Pr_14 CALCULE LE 27/06/2016 A 15:40:23 DE TYPE ACOU_HARMO

                    ENTITES TOPOLOGIQUES SELECTIONNEES 
 GROUP_MA : ENTREE SORTIE                                                        


 ======>

 ------>
 CHAMP AUX NOEUDS DE NOM SYMBOLIQUE  INTE_NOEU                                   
 NUMERO D'ORDRE: 1 FREQ:   1.88000000000000E+02                                  
 NOEUD        INTX_R       INTX_I       INTY_R       INTY_I       INTZ_R       INTZ_I  
 N1       -3.88815802525143E-26 -9.32865043739047E-03  1.76629112122605E-25  6.47169242422450E+03 -3.78755262688181E-25 -9.35505218198373E-03
 N2       -2.72403903175832E-25  8.29520523021834E-03  4.39136777831191E-26  6.47161310850271E+03 -8.30440625695800E-26  1.59605598913768E-02
 N3       -8.96242222428159E-26 -5.90259241971900E-03  1.16740360213350E-25  1.80636805081657E-01 -8.88563672243867E-26  1.52794514948240E-02
 N4        4.66064519408635E-25  1.19755529760420E-02  2.40971721395965E-25  2.34525587485436E-01  1.48700010546560E-25 -1.22051894539684E-02
 N5       -1.54348398815095E-25 -8.29520366032124E-03 -3.66596915519412E-25  6.47161310850141E+03 -1.04722044985971E-25 -1.59605622462225E-02
 N6       -5.05990368536317E-25 -1.19755402565887E-02  9.99420576554693E-26  2.34525591412508E-01  4.33939041841648E-25  1.22051865086649E-02
 N7        8.15138957828062E-26  9.32866140650690E-03 -1.29512027975565E-25  6.47169242421863E+03 -6.82058127149693E-26  9.35505021961237E-03
 N8       -2.15570528668857E-25  5.90259241971900E-03  6.73118228641926E-26  1.80636796442101E-01  9.30909116271896E-27 -1.52794577781381E-02
 N11      -2.82086075951617E-25 -2.06585992434413E-02  3.40256991103266E-25  1.77012500467238E-01  7.54109032384687E-26 -4.59393712552404E-04
 N13       1.65956450002197E-25  2.12553354230615E-02 -5.50561802971849E-26  6.47161323487255E+03  4.92534150526526E-26 -2.89573507287202E-03
 N14      -1.13666087773589E-25 -4.59383894697574E-04  7.73257055478325E-26  1.77012492545080E-01  4.26025077199496E-26 -2.90515213436473E-02
 N15      -6.57060879404863E-26  2.06586051340482E-02 -1.01352389575911E-25  1.77012499485470E-01  1.19282966870084E-25  4.59384876641920E-04
 N16      -9.70435554480095E-26  4.59394694143716E-04  6.23986058245955E-25  1.77012502362758E-01  2.24275926189745E-25  2.90515203618795E-02
 N18      -1.37833047589261E-26 -2.12553373854329E-02 -2.63466920569334E-25  6.47161323486469E+03  9.33613710526155E-26  2.89574095998619E-03
 N20       2.84679587429657E-26 -2.89572918687117E-03  2.58998812402163E-25  6.47161323734890E+03 -2.90988700601057E-25  2.96432387877484E-02
 N21       7.25759148632993E-26  2.89574684821368E-03 -3.57953524353086E-26  6.47161323734497E+03 -7.90514346893147E-26 -2.96432368253770E-02
 N23       1.91581582121000E-25  4.90883913725759E-09 -2.16329883017698E-25  5.75411100081987E-02 -1.25848761695107E-25 -2.94530348200761E-09
 N25      -9.20928498558405E-26  2.57386837364260E-09 -6.76754304258243E-25  6.47144635579682E+03 -1.91467985958055E-25 -4.90592849677896E-09
 

 ------>
 CHAMP AUX NOEUDS DE NOM SYMBOLIQUE  PRAC_NOEU                                   
 NUMERO D'ORDRE: 1 FREQ:   1.88000000000000E+02                                  
 NOEUD        PRES_R       PRES_I  
 N1       -7.92506785424023E-13 -1.29426180017912E+04
 N2       -7.92506785844778E-13 -1.29426180086626E+04
 N3       -7.92976982764412E-13 -1.29502969071003E+04
 N4       -7.92976982831121E-13 -1.29502969081897E+04
 N5       -7.92506785844779E-13 -1.29426180086626E+04
 N6       -7.92976982831123E-13 -1.29502969081898E+04
 N7       -7.92506785424024E-13 -1.29426180017912E+04
 N8       -7.92976982764412E-13 -1.29502969071003E+04
 N11      -7.92976981547155E-13 -1.29502968872210E+04
 N13      -7.92506787364448E-13 -1.29426180334807E+04
 N14      -7.92976981242459E-13 -1.29502968822449E+04
 N15      -7.92976981547154E-13 -1.29502968872210E+04
 N16      -7.92976981242460E-13 -1.29502968822449E+04
 N18      -7.92506787364447E-13 -1.29426180334807E+04
 N20      -7.92506787669141E-13 -1.29426180384567E+04
 N21      -7.92506787669141E-13 -1.29426180384567E+04
 N23      -7.92976978635985E-13 -1.29502968396780E+04
 N25      -7.92506791625396E-13 -1.29426181030673E+04
 
   
   !----------------------------------------------------------------------------------------------------------------!
   ! <EXCEPTION> <MATRICE0_12>                                                                                      !
   !                                                                                                                !
   !  Une des charges renseignées pour l'assemblage des vecteurs est déjà présente dans le mot-clé                  !
   !  CHARGE définissant les conditions de Dirichlet. Il est interdit de renseigner plus d'une fois la même charge. !
   !----------------------------------------------------------------------------------------------------------------!
   

 --------------------------------------------------------------------------------
 ASTER 11.03.00 CONCEPT Pr_15 CALCULE LE 27/06/2016 A 15:40:23 DE TYPE ACOU_HARMO

                    ENTITES TOPOLOGIQUES SELECTIONNEES 
 GROUP_MA : ENTREE SORTIE                                                        
[...]
 * ASSEMBLAGE               :       0.02 :       0.00 :       0.02 :       0.02 *
 * DYNA_VIBRA               :       0.00 :       0.00 :       0.00 :       0.01 *
 * CALC_CHAMP               :       0.01 :       0.00 :       0.01 :       0.01 *
 * IMPR_RESU                :       0.01 :       0.00 :       0.01 :       0.00 *
 * DETRUIRE                 :       0.01 :       0.00 :       0.01 :       0.02 *
 * ASSEMBLAGE               :       0.02 :       0.00 :       0.02 :       0.02 *
 * DYNA_VIBRA               :       0.01 :       0.00 :       0.01 :       0.00 *
 * CALC_CHAMP               :       0.01 :       0.00 :       0.01 :       0.01 *
 * IMPR_RESU                :       0.00 :       0.00 :       0.00 :       0.01 *
 * DETRUIRE                 :       0.02 :       0.00 :       0.02 :       0.01 *
 * ASSEMBLAGE               :       0.01 :       0.00 :       0.01 :       0.02 *
 * DYNA_VIBRA               :       0.01 :       0.00 :       0.01 :       0.01 *
 * CALC_CHAMP               :       0.01 :       0.00 :       0.01 :       0.00 *
 * IMPR_RESU                :       0.00 :       0.00 :       0.00 :       0.01 *
 * DETRUIRE                 :       0.02 :       0.00 :       0.02 :       0.01 *
 * ASSEMBLAGE               :       0.02 :       0.00 :       0.02 :       0.02 *
 * DYNA_VIBRA               :       0.00 :       0.00 :       0.00 :       0.01 *
 * CALC_CHAMP               :       0.01 :       0.00 :       0.01 :       0.01 *
 * IMPR_RESU                :       0.01 :       0.00 :       0.01 :       0.00 *
 * DETRUIRE                 :       0.01 :       0.00 :       0.01 :       0.02 *
 * ASSEMBLAGE               :       0.02 :       0.00 :       0.02 :       0.02 *
 * DYNA_VIBRA               :       0.01 :       0.00 :       0.01 :       0.00 *
 * CALC_CHAMP               :       0.01 :       0.00 :       0.01 :       0.02 *
 * IMPR_RESU                :       0.00 :       0.00 :       0.00 :       0.00 *
 * DETRUIRE                 :       0.01 :       0.01 :       0.02 :       0.01 *
 * ASSEMBLAGE               :       0.02 :       0.00 :       0.02 :       0.01 *
 * DYNA_VIBRA               :       0.01 :       0.00 :       0.01 :       0.01 *
 * CALC_CHAMP               :       0.01 :       0.00 :       0.01 :       0.01 *
 * IMPR_RESU                :       0.00 :       0.00 :       0.00 :       0.00 *
 * DETRUIRE                 :       0.02 :       0.00 :       0.02 :       0.02 *
 * ASSEMBLAGE               :       0.02 :       0.00 :       0.02 :       0.01 *
 * DYNA_VIBRA               :       0.00 :       0.00 :       0.00 :       0.01 *
 * CALC_CHAMP               :       0.01 :       0.00 :       0.01 :       0.01 *
 * IMPR_RESU                :       0.01 :       0.00 :       0.01 :       0.01 *
 * DETRUIRE                 :       0.01 :       0.00 :       0.01 :       0.01 *
 * ASSEMBLAGE               :       0.02 :       0.00 :       0.02 :       0.02 *
 * DYNA_VIBRA               :       0.01 :       0.00 :       0.01 :       0.01 *
 * CALC_CHAMP               :       0.01 :       0.00 :       0.01 :       0.01 *
 * IMPR_RESU                :       0.00 :       0.00 :       0.00 :       0.00 *
 * DETRUIRE                 :       0.02 :       0.00 :       0.02 :       0.02 *
 * ASSEMBLAGE               :       0.01 :       0.00 :       0.01 :       0.02 *
 * DYNA_VIBRA               :       0.01 :       0.00 :       0.01 :       0.00 *
 * CALC_CHAMP               :       0.01 :       0.00 :       0.01 :       0.01 *
 * IMPR_RESU                :       0.01 :       0.00 :       0.01 :       0.01 *
 * DETRUIRE                 :       0.01 :       0.00 :       0.01 :       0.01 *
 * ASSEMBLAGE               :       0.02 :       0.00 :       0.02 :       0.02 *
 * DYNA_VIBRA               :       0.00 :       0.00 :       0.00 :       0.01 *
 * CALC_CHAMP               :       0.01 :       0.00 :       0.01 :       0.00 *
 * IMPR_RESU                :       0.01 :       0.00 :       0.01 :       0.01 *
 * DETRUIRE                 :       0.01 :       0.00 :       0.01 :       0.01 *
 * ASSEMBLAGE               :       0.02 :       0.00 :       0.02 :       0.02 *
 * DYNA_VIBRA               :       0.01 :       0.00 :       0.01 :       0.01 *
 * CALC_CHAMP               :       0.01 :       0.00 :       0.01 :       0.01 *
 * IMPR_RESU                :       0.00 :       0.00 :       0.00 :       0.00 *
 * DETRUIRE                 :       0.01 :       0.00 :       0.01 :       0.02 *
 * ASSEMBLAGE               :       0.02 :       0.00 :       0.02 :       0.02 *
 * DYNA_VIBRA               :       0.00 :       0.00 :       0.00 :       0.01 *
 * CALC_CHAMP               :       0.01 :       0.00 :       0.01 :       0.01 *
 * IMPR_RESU                :       0.01 :       0.00 :       0.01 :       0.00 *
 * DETRUIRE                 :       0.01 :       0.00 :       0.01 :       0.02 *
 * ASSEMBLAGE               :       0.02 :       0.00 :       0.02 :       0.01 *
 * DYNA_VIBRA               :       0.01 :       0.00 :       0.01 :       0.00 *
 * CALC_CHAMP               :       0.01 :       0.00 :       0.01 :       0.01 *
 * IMPR_RESU                :       0.00 :       0.00 :       0.00 :       0.01 *
 * DETRUIRE                 :       0.02 :       0.00 :       0.02 :       0.01 *
 * ASSEMBLAGE               :       0.01 :       0.00 :       0.01 :       0.02 *
 * DYNA_VIBRA               :       0.01 :       0.00 :       0.01 :       0.01 *
 * CALC_CHAMP               :       0.01 :       0.00 :       0.01 :       0.00 *
 * IMPR_RESU                :       0.00 :       0.00 :       0.00 :       0.01 *
 * DETRUIRE                 :       0.02 :       0.00 :       0.02 :       0.01 *
 * ASSEMBLAGE               :       0.01 :       0.00 :       0.01 :       0.02 *
 * DYNA_VIBRA               :       0.01 :       0.00 :       0.01 :       0.01 *
 * CALC_CHAMP               :       0.01 :       0.00 :       0.01 :       0.01 *
 * IMPR_RESU                :       0.01 :       0.00 :       0.01 :       0.00 *
 * DETRUIRE                 :       0.01 :       0.00 :       0.01 :       0.02 *
 * ASSEMBLAGE               :       0.02 :       0.00 :       0.02 :       0.02 *
 * DYNA_VIBRA               :       0.01 :       0.00 :       0.01 :       0.00 *
 * CALC_CHAMP               :       0.01 :       0.00 :       0.01 :       0.02 *
 * IMPR_RESU                :       0.00 :       0.00 :       0.00 :       0.00 *
 * DETRUIRE                 :       0.01 :       0.01 :       0.02 :       0.02 *
 * ASSEMBLAGE               :       0.02 :       0.00 :       0.02 :       0.01 *
 * DYNA_VIBRA               :       0.00 :       0.00 :       0.00 :       0.01 *
 * CALC_CHAMP               :       0.01 :       0.00 :       0.01 :       0.01 *
 * IMPR_RESU                :       0.01 :       0.00 :       0.01 :       0.01 *
 * DETRUIRE                 :       0.01 :       0.00 :       0.01 :       0.01 *
 * ASSEMBLAGE               :       0.02 :       0.00 :       0.02 :       0.02 *
 * DYNA_VIBRA               :       0.01 :       0.00 :       0.01 :       0.00 *
 * CALC_CHAMP               :       0.01 :       0.00 :       0.01 :       0.01 *
 * IMPR_RESU                :       0.00 :       0.00 :       0.00 :       0.01 *
 * DETRUIRE                 :       0.01 :       0.00 :       0.01 :       0.01 *
 * ASSEMBLAGE               :       0.01 :       0.00 :       0.01 :       0.02 *
 * DYNA_VIBRA               :       0.01 :       0.00 :       0.01 :       0.00 *
 * CALC_CHAMP               :       0.01 :       0.00 :       0.01 :       0.01 *
 * IMPR_RESU                :       0.00 :       0.00 :       0.00 :       0.00 *
 * DETRUIRE                 :       0.02 :       0.00 :       0.02 :       0.02 *
 * ASSEMBLAGE               :       0.02 :       0.00 :       0.02 :       0.01 *
 * DYNA_VIBRA               :       0.00 :       0.01 :       0.01 :       0.01 *
 * CALC_CHAMP               :       0.01 :       0.00 :       0.01 :       0.01 *
 * IMPR_RESU                :       0.00 :       0.00 :       0.00 :       0.00 *
 * DETRUIRE                 :       0.02 :       0.00 :       0.02 :       0.01 *
 * ASSEMBLAGE               :       0.01 :       0.00 :       0.01 :       0.01 *
 * DYNA_VIBRA               :       0.01 :       0.00 :       0.01 :       0.00 *
 * CALC_CHAMP               :       0.01 :       0.00 :       0.01 :       0.01 *
 * IMPR_RESU                :       0.01 :       0.00 :       0.01 :       0.01 *
 * DETRUIRE                 :       0.01 :       0.00 :       0.01 :       0.01 *
 * ASSEMBLAGE               :       0.02 :       0.00 :       0.02 :       0.02 *
 * DYNA_VIBRA               :       0.00 :       0.00 :       0.00 :       0.01 *
 * CALC_CHAMP               :       0.01 :       0.00 :       0.01 :       0.01 *
 * IMPR_RESU                :       0.01 :       0.00 :       0.01 :       0.00 *
 * DETRUIRE                 :       0.01 :       0.00 :       0.01 :       0.02 *
 * ASSEMBLAGE               :       0.02 :       0.00 :       0.02 :       0.01 *
 * DYNA_VIBRA               :       0.01 :       0.00 :       0.01 :       0.01 *
 * CALC_CHAMP               :       0.01 :       0.00 :       0.01 :       0.01 *
 * IMPR_RESU                :       0.00 :       0.00 :       0.00 :       0.01 *
 * DETRUIRE                 :       0.02 :       0.00 :       0.02 :       0.01 *
 * ASSEMBLAGE               :       0.02 :       0.00 :       0.02 :       0.02 *
 * DYNA_VIBRA               :       0.00 :       0.00 :       0.00 :       0.01 *
 * CALC_CHAMP               :       0.01 :       0.00 :       0.01 :       0.00 *
 * IMPR_RESU                :       0.01 :       0.00 :       0.01 :       0.01 *
 * DETRUIRE                 :       0.01 :       0.00 :       0.01 :       0.01 *
 * ASSEMBLAGE               :       0.02 :       0.00 :       0.02 :       0.02 *
 * DYNA_VIBRA               :       0.01 :       0.00 :       0.01 :       0.01 *
 * CALC_CHAMP               :       0.01 :       0.00 :       0.01 :       0.01 *
 * IMPR_RESU                :       0.00 :       0.00 :       0.00 :       0.00 *
 * DETRUIRE                 :       0.01 :       0.00 :       0.01 :       0.02 *
 * ASSEMBLAGE               :       0.02 :       0.00 :       0.02 :       0.02 *
 * DYNA_VIBRA               :       0.01 :       0.00 :       0.01 :       0.00 *
 * CALC_CHAMP               :       0.01 :       0.00 :       0.01 :       0.01 *
 * IMPR_RESU                :       0.00 :       0.00 :       0.00 :       0.01 *
 * DETRUIRE                 :       0.02 :       0.00 :       0.02 :       0.01 *
 * ASSEMBLAGE               :       0.01 :       0.00 :       0.01 :       0.02 *
 * DYNA_VIBRA               :       0.01 :       0.00 :       0.01 :       0.01 *
 * CALC_CHAMP               :       0.01 :       0.00 :       0.01 :       0.00 *
 * IMPR_RESU                :       0.00 :       0.00 :       0.00 :       0.00 *
 * DETRUIRE                 :       0.01 :       0.00 :       0.01 :       0.01 *
 * ASSEMBLAGE               :       0.02 :       0.00 :       0.02 :       0.02 *
 * DYNA_VIBRA               :       0.00 :       0.00 :       0.00 :       0.01 *
 * CALC_CHAMP               :       0.01 :       0.00 :       0.01 :       0.01 *
 * IMPR_RESU                :       0.01 :       0.00 :       0.01 :       0.00 *
 * DETRUIRE                 :       0.01 :       0.00 :       0.01 :       0.02 *
 * ASSEMBLAGE               :       0.02 :       0.00 :       0.02 :       0.02 *
 * DYNA_VIBRA               :       0.01 :       0.00 :       0.01 :       0.00 *
 * CALC_CHAMP               :       0.01 :       0.00 :       0.01 :       0.02 *
 * IMPR_RESU                :       0.00 :       0.00 :       0.00 :       0.00 *
 * DETRUIRE                 :       0.01 :       0.00 :       0.01 :       0.01 *
 * ASSEMBLAGE               :       0.02 :       0.00 :       0.02 :       0.02 *
 * DYNA_VIBRA               :       0.01 :       0.00 :       0.01 :       0.01 *
 * CALC_CHAMP               :       0.01 :       0.00 :       0.01 :       0.01 *
 * IMPR_RESU                :       0.00 :       0.00 :       0.00 :       0.00 *
 * DETRUIRE                 :       0.02 :       0.00 :       0.02 :       0.02 *
 * ASSEMBLAGE               :       0.02 :       0.00 :       0.02 :       0.02 *
 * DYNA_VIBRA               :       0.00 :       0.01 :       0.01 :       0.01 *
 * CALC_CHAMP               :       0.01 :       0.00 :       0.01 :       0.00 *
 * IMPR_RESU                :       0.01 :       0.00 :       0.01 :       0.01 *
 * DETRUIRE                 :       0.01 :       0.00 :       0.01 :       0.01 *
 * ASSEMBLAGE               :       0.02 :       0.00 :       0.02 :       0.02 *
 * DYNA_VIBRA               :       0.01 :       0.00 :       0.01 :       0.01 *
 * CALC_CHAMP               :       0.01 :       0.00 :       0.01 :       0.01 *
 * IMPR_RESU                :       0.00 :       0.00 :       0.00 :       0.00 *
 * DETRUIRE                 :       0.01 :       0.00 :       0.01 :       0.02 *
 * ASSEMBLAGE               :       0.01 :       0.00 :       0.01 :       0.02 *
 * DYNA_VIBRA               :       0.01 :       0.00 :       0.01 :       0.00 *
 * CALC_CHAMP               :       0.01 :       0.00 :       0.01 :       0.02 *
 * IMPR_RESU                :       0.00 :       0.00 :       0.00 :       0.00 *
 * DETRUIRE                 :       0.01 :       0.00 :       0.01 :       0.01 *
 * ASSEMBLAGE               :       0.02 :       0.00 :       0.02 :       0.01 *
 * DYNA_VIBRA               :       0.00 :       0.00 :       0.00 :       0.01 *
 * CALC_CHAMP               :       0.01 :       0.00 :       0.01 :       0.01 *
 * IMPR_RESU                :       0.01 :       0.00 :       0.01 :       0.00 *
 * DETRUIRE                 :       0.01 :       0.00 :       0.01 :       0.01 *
 * ASSEMBLAGE               :       0.02 :       0.00 :       0.02 :       0.02 *
 * DYNA_VIBRA               :       0.00 :       0.00 :       0.00 :       0.00 *
 * CALC_CHAMP               :       0.01 :       0.00 :       0.01 :       0.01 *
 * IMPR_RESU                :       0.01 :       0.00 :       0.01 :       0.01 *
 * DETRUIRE                 :       0.01 :       0.00 :       0.01 :       0.01 *
 * ASSEMBLAGE               :       0.02 :       0.00 :       0.02 :       0.02 *
 * DYNA_VIBRA               :       0.01 :       0.00 :       0.01 :       0.01 *
 * CALC_CHAMP               :       0.01 :       0.00 :       0.01 :       0.01 *
 * IMPR_RESU                :       0.00 :       0.00 :       0.00 :       0.00 *
 * DETRUIRE                 :       0.02 :       0.00 :       0.02 :       0.02 *
 * ASSEMBLAGE               :       0.02 :       0.00 :       0.02 :       0.02 *
 * DYNA_VIBRA               :       0.00 :       0.00 :       0.00 :       0.00 *
 * CALC_CHAMP               :       0.01 :       0.00 :       0.01 :       0.02 *
 * IMPR_RESU                :       0.00 :       0.00 :       0.00 :       0.00 *
 * DETRUIRE                 :       0.02 :       0.00 :       0.02 :       0.02 *
 * ASSEMBLAGE               :       0.01 :       0.00 :       0.01 :       0.01 *
 * DYNA_VIBRA               :       0.01 :       0.01 :       0.02 :       0.01 *
 * CALC_CHAMP               :       0.01 :       0.00 :       0.01 :       0.01 *
 * IMPR_RESU                :       0.00 :       0.00 :       0.00 :       0.01 *
 * DETRUIRE                 :       0.02 :       0.00 :       0.02 :       0.01 *
 * ASSEMBLAGE               :       0.01 :       0.00 :       0.01 :       0.02 *
 * DYNA_VIBRA               :       0.01 :       0.00 :       0.01 :       0.01 *
 * CALC_CHAMP               :       0.01 :       0.00 :       0.01 :       0.00 *
 * IMPR_RESU                :       0.00 :       0.00 :       0.00 :       0.01 *
 * DETRUIRE                 :       0.02 :       0.00 :       0.02 :       0.01 *
 * ASSEMBLAGE               :       0.01 :       0.00 :       0.01 :       0.02 *
 * DYNA_VIBRA               :       0.00 :       0.00 :       0.00 :       0.01 *
 * CALC_CHAMP               :       0.01 :       0.00 :       0.01 :       0.01 *
 * IMPR_RESU                :       0.01 :       0.00 :       0.01 :       0.00 *
 * DETRUIRE                 :       0.01 :       0.00 :       0.01 :       0.02 *
 * ASSEMBLAGE               :       0.02 :       0.00 :       0.02 :       0.02 *
 * DYNA_VIBRA               :       0.01 :       0.00 :       0.01 :       0.00 *
 * CALC_CHAMP               :       0.01 :       0.00 :       0.01 :       0.02 *
 * IMPR_RESU                :       0.00 :       0.00 :       0.00 :       0.00 *
 * DETRUIRE                 :       0.02 :       0.00 :       0.02 :       0.02 *
 * ASSEMBLAGE               :       0.02 :       0.00 :       0.02 :       0.01 *
 * DYNA_VIBRA               :       0.00 :       0.00 :       0.00 :       0.00 *
 * CALC_CHAMP               :       0.01 :       0.00 :       0.01 :       0.01 *
 * IMPR_RESU                :       0.01 :       0.00 :       0.01 :       0.01 *
 * DETRUIRE                 :       0.01 :       0.00 :       0.01 :       0.01 *
 * ASSEMBLAGE               :       0.02 :       0.00 :       0.02 :       0.02 *
 * DYNA_VIBRA               :       0.01 :       0.00 :       0.01 :       0.01 *
 * CALC_CHAMP               :       0.01 :       0.00 :       0.01 :       0.00 *
 * IMPR_RESU                :       0.00 :       0.00 :       0.00 :       0.01 *
 * DETRUIRE                 :       0.02 :       0.00 :       0.02 :       0.01 *
 * ASSEMBLAGE               :       0.01 :       0.00 :       0.01 :       0.02 *
 * DYNA_VIBRA               :       0.01 :       0.00 :       0.01 :       0.01 *
 * CALC_CHAMP               :       0.01 :       0.00 :       0.01 :       0.01 *
 * IMPR_RESU                :       0.00 :       0.00 :       0.00 :       0.01 *
 * DETRUIRE                 :       0.02 :       0.00 :       0.02 :       0.01 *
 * ASSEMBLAGE               :       0.02 :       0.00 :       0.02 :       0.02 *
 * DYNA_VIBRA               :       0.00 :       0.00 :       0.00 :       0.01 *
 * CALC_CHAMP               :       0.01 :       0.00 :       0.01 :       0.01 *
 * IMPR_RESU                :       0.01 :       0.00 :       0.01 :       0.00 *
 * DETRUIRE                 :       0.01 :       0.00 :       0.01 :       0.02 *
 * ASSEMBLAGE               :       0.02 :       0.00 :       0.02 :       0.02 *
 * DYNA_VIBRA               :       0.01 :       0.00 :       0.01 :       0.00 *
 * CALC_CHAMP               :       0.01 :       0.00 :       0.01 :       0.01 *
 * IMPR_RESU                :       0.00 :       0.00 :       0.00 :       0.01 *
 * DETRUIRE                 :       0.02 :       0.00 :       0.02 :       0.01 *
 * ASSEMBLAGE               :       0.02 :       0.00 :       0.02 :       0.02 *
 * DYNA_VIBRA               :       0.00 :       0.00 :       0.00 :       0.01 *
 * CALC_CHAMP               :       0.01 :       0.00 :       0.01 :       0.01 *
 * IMPR_RESU                :       0.00 :       0.00 :       0.00 :       0.00 *
 * DETRUIRE                 :       0.01 :       0.00 :       0.01 :       0.02 *
 * ASSEMBLAGE               :       0.02 :       0.00 :       0.02 :       0.01 *
 * DYNA_VIBRA               :       0.01 :       0.00 :       0.01 :       0.01 *
 *  . part Superviseur      :       4.90 :       0.12 :       5.02 :       5.19 *
 *  . part Fortran          :       2.72 :       0.10 :       2.82 :       2.63 *
 * > 500 commandes...       :       9.23 :       0.16 :       9.39 :       9.61 *
 ********************************************************************************
 * TOTAL_JOB                :      16.85 :       0.38 :      17.23 :      17.47 *
 ********************************************************************************

