                                                                                
                                                                                
        -- CODE_ASTER -- VERSION : DÉVELOPPEMENT STABILISÉE (testing) --        
                                                                                
                          Version 11.3.0 du 12/12/2012                          
                         Copyright EDF R&D 1991 - 2016                          
                                                                                
                    Exécution du : Mon Jun 27 14:58:12 2016                     
                   Nom de la machine : liding-Precision-T3600                   
                              Architecture : 64bit                              
                          Type de processeur : x86_64                           
                Système d'exploitation : Linux 3.13.0-85-generic                
                        Langue des messages : en (UTF-8)                        
                                                                                
   
   !------------------------------------------------------------------------------------!
   ! <A> <SUPERVIS2_2>                                                                  !
   !                                                                                    !
   !     Vous utilisez une vieille version de Code_Aster.                               !
   !                                                                                    !
   !     En mettant à jour votre version, vous bénéficierez des dernières améliorations !
   !     apportées au code depuis 15 mois.                                              !
   !     Si vous avez des développements privés, vous risquez d'avoir un travail        !
   !     important de portage si vous ne suivez pas les mises à jour.                   !
   !                                                                                    !
   !                                                                                    !
   ! Ceci est une alarme. Si vous ne comprenez pas le sens de cette                     !
   ! alarme, vous pouvez obtenir des résultats inattendus !                             !
   !------------------------------------------------------------------------------------!
   
                           Parallélisme MPI : inactif                           
                          Parallélisme OpenMP : actif                           
                        Nombre de processus utilisés : 1                        
                      Version de la librairie HDF5 : 1.8.8                      
                      Version de la librairie MED : 3.0.6                       
                          Librairie MUMPS : installée                           
                    Version de la librairie SCOTCH : 5.1.10                     
                 Mémoire limite pour l'exécution : 20000.00 Mo                  
                   consommée par l'initialisation : 210.67 Mo                   
                 par les objets du jeu de commandes : 11.87 Mo                  
                reste pour l'allocation dynamique : 19777.46 Mo                 
                Taille limite des fichiers d'échange : 97.66 Go                 
                                                                                
   
   !----------------------------------------------------------------------------------------------------------------!
   ! <EXCEPTION> <MATRICE0_12>                                                                                      !
   !                                                                                                                !
   !  Une des charges renseignées pour l'assemblage des vecteurs est déjà présente dans le mot-clé                  !
   !  CHARGE définissant les conditions de Dirichlet. Il est interdit de renseigner plus d'une fois la même charge. !
   !----------------------------------------------------------------------------------------------------------------!
   

 --------------------------------------------------------------------------------
 ASTER 11.03.00 CONCEPT Pr_0 CALCULE LE 27/06/2016 A 14:58:12 DE TYPE ACOU_HARMO 

                    ENTITES TOPOLOGIQUES SELECTIONNEES 
 GROUP_MA : ENTREE SORTIE                                                        


 ======>

 ------>
 CHAMP AUX NOEUDS DE NOM SYMBOLIQUE  INTE_NOEU                                   
 NUMERO D'ORDRE: 1 FREQ:   2.00000000000000E+01                                  
 NOEUD        INTX_R       INTX_I       INTY_R       INTY_I       INTZ_R       INTZ_I  
 N1        4.25984888819346E-29 -3.61233154395916E+01 -3.15544362088405E-29 -4.52443744326431E+03  3.78653234506086E-29  3.61233154395900E+01
 N2        4.02319061662716E-29  1.08995745205629E+02  2.52435489670724E-29 -7.12264126653747E+02  1.02551917678732E-29  1.08995745205628E+02
 N3        4.89093761237027E-29  1.00674484901967E+02  2.05103835357463E-29 -1.57193044122111E+02  3.23432971140615E-29 -1.00674484901967E+02
 N4       -2.52435489670724E-29 -3.01472076059762E+01 -4.73316543132607E-29  2.67589223071665E+03 -2.05103835357463E-29 -3.01472076059757E+01
 N5        4.73316543132607E-30 -1.08995745205626E+02  1.89326617253043E-29 -7.12264126653750E+02  1.57772181044202E-30 -1.08995745205627E+02
 N6        2.20881053461883E-29  3.61233154395878E+01 -3.15544362088405E-29 -4.52443744326430E+03  4.73316543132607E-30 -3.61233154395892E+01
 N7       -6.31088724176809E-29  3.01472076059811E+01  4.73316543132607E-29  2.67589223071666E+03 -2.83989925879564E-29  3.01472076059796E+01
 N8        4.73316543132607E-29 -1.00674484901964E+02  6.15311506072389E-29 -1.57193044122111E+02 -3.31321580192825E-29  1.00674484901967E+02
 N9        4.41762106923767E-29 -2.50069454879623E+02  3.47098798297245E-29  3.99264748224257E+02 -6.31088724176809E-29  6.48881762516451E+02
 N11       3.15544362088405E-30 -2.83221668824419E+02  1.26217744835362E-29 -1.56344371107384E+03  3.15544362088405E-29 -6.94523076185427E+02
 N13       2.83989925879564E-29  2.50069454879626E+02  0.00000000000000E+00  3.99264748224255E+02 -6.31088724176809E-30 -6.48881762516447E+02
 N15      -1.26217744835362E-29  2.83221668824420E+02  2.52435489670724E-29 -1.56344371107384E+03  1.26217744835362E-29  6.94523076185429E+02
 N17      -6.31088724176809E-29  6.48881762516452E+02  2.20881053461883E-29  3.99264748224256E+02  8.20415341429852E-29 -2.50069454879625E+02
 N18       1.26217744835362E-29 -6.48881762516446E+02  2.20881053461883E-29  3.99264748224255E+02 -6.31088724176809E-30  2.50069454879626E+02
 N19       0.00000000000000E+00 -6.94523076185429E+02 -2.52435489670724E-29 -1.56344371107384E+03  0.00000000000000E+00 -2.83221668824420E+02
 N20      -6.31088724176809E-30  6.94523076185428E+02  1.26217744835362E-29 -1.56344371107384E+03  3.15544362088405E-30  2.83221668824420E+02
 N23      -3.10528428056969E-29  2.42531920472781E-12 -1.26217744835362E-29  1.62144312790889E+03 -3.36986139827896E-29  1.93267624126747E-12
 N24       1.76594994220554E-30 -1.89478062869360E-12 -5.04870979341448E-29 -3.21619302988190E+03  3.41665560840676E-29  7.57912251477440E-14
 

 ------>
 CHAMP AUX NOEUDS DE NOM SYMBOLIQUE  PRAC_NOEU                                   
 NUMERO D'ORDRE: 1 FREQ:   2.00000000000000E+01                                  
 NOEUD        PRES_R       PRES_I  
 N1        1.64153597053309E-13  2.68083168416558E+03
 N2        8.67924984191593E-14  1.41742906574512E+03
 N3       -8.08121482665350E-14 -1.31976253598670E+03
 N4       -1.57408987339170E-13 -2.57068384858009E+03
 N5        8.67924984191593E-14  1.41742906574512E+03
 N6        1.64153597053309E-13  2.68083168416557E+03
 N7       -1.57408987339171E-13 -2.57068384858009E+03
 N8       -8.08121482665352E-14 -1.31976253598670E+03
 N9       -1.03776649289142E-13 -1.69480129881359E+03
 N11       1.09978799713067E-13  1.79609010189123E+03
 N13      -1.03776649289141E-13 -1.69480129881358E+03
 N15       1.09978799713067E-13  1.79609010189123E+03
 N17      -1.03776649289142E-13 -1.69480129881358E+03
 N18      -1.03776649289141E-13 -1.69480129881358E+03
 N19       1.09978799713067E-13  1.79609010189123E+03
 N20       1.09978799713067E-13  1.79609010189123E+03
 N23      -1.33870213472437E-13 -2.18626649848173E+03
 N24       1.41246706098742E-13  2.30673376514900E+03
 
   
   !----------------------------------------------------------------------------------------------------------------!
   ! <EXCEPTION> <MATRICE0_12>                                                                                      !
   !                                                                                                                !
   !  Une des charges renseignées pour l'assemblage des vecteurs est déjà présente dans le mot-clé                  !
   !  CHARGE définissant les conditions de Dirichlet. Il est interdit de renseigner plus d'une fois la même charge. !
   !----------------------------------------------------------------------------------------------------------------!
   

 --------------------------------------------------------------------------------
 ASTER 11.03.00 CONCEPT Pr_1 CALCULE LE 27/06/2016 A 14:58:12 DE TYPE ACOU_HARMO 

                    ENTITES TOPOLOGIQUES SELECTIONNEES 
 GROUP_MA : ENTREE SORTIE                                                        


 ======>

 ------>
 CHAMP AUX NOEUDS DE NOM SYMBOLIQUE  INTE_NOEU                                   
 NUMERO D'ORDRE: 1 FREQ:   3.20000000000000E+01                                  
 NOEUD        INTX_R       INTX_I       INTY_R       INTY_I       INTZ_R       INTZ_I  
 N1       -1.87354464989990E-30  6.81990366815089E+01  3.15544362088405E-29 -6.00660220055628E+02  3.16530438219931E-29 -6.81990366815082E+01
 N2       -1.63688637833360E-29  1.07851863616367E+01  2.68212707775144E-29 -1.30898833958329E+02 -1.07482298336363E-29  1.07851863616362E+01
 N3        9.17050802319426E-30  3.32027692806398E+00  7.57306469012171E-29  1.69477195036677E+02 -5.62063394969971E-30 -3.32027692806360E+00
 N4        6.07669416053061E-30 -2.67392031523172E+01 -2.12006368278147E-29  1.02468565597064E+02 -2.77333911991762E-30 -2.67392031523174E+01
 N5       -3.15544362088405E-30 -1.07851863616360E+01  2.20881053461883E-29 -1.30898833958331E+02  2.39616499960882E-29 -1.07851863616358E+01
 N6       -4.14151975241031E-29 -6.81990366815095E+01 -6.94197596594490E-29 -6.00660220055629E+02  1.02551917678732E-29  6.81990366815081E+01
 N7       -4.03058618761361E-30  2.67392031523178E+01 -2.04117759225937E-29  1.02468565597066E+02  2.46519032881566E-31  2.67392031523183E+01
 N8        1.45446229400124E-30 -3.32027692806397E+00  7.88860905221012E-30  1.69477195036673E+02 -1.30655087427230E-30  3.32027692806393E+00
 N9       -9.86076131526265E-32  1.15488901514699E+01  6.31088724176809E-30  1.60803068091443E+02  2.01837458171782E-30 -3.18316297931048E-01
 N11      -1.10440526730942E-29 -6.63227731036001E+01 -1.89326617253043E-29 -2.67407771722096E+02  1.34106353887572E-29 -3.57565968419054E+01
 N13       4.73316543132607E-30 -1.15488901514700E+01  2.99767143983984E-29  1.60803068091444E+02 -7.41405991391310E-30  3.18316297931528E-01
 N15      -2.05103835357463E-29  6.63227731036006E+01  1.57772181044202E-29 -2.67407771722094E+02 -5.52202633654708E-30  3.57565968419057E+01
 N17       7.49109711168859E-30 -3.18316297931327E-01  1.26217744835362E-29  1.60803068091446E+02 -2.66240555512091E-30  1.15488901514706E+01
 N18      -1.95366333558641E-30  3.18316297931252E-01  0.00000000000000E+00  1.60803068091442E+02 -9.86076131526265E-32 -1.15488901514699E+01
 N19       2.36658271566304E-30 -3.57565968419053E+01  3.15544362088405E-29 -2.67407771722096E+02  3.47098798297245E-29 -6.63227731036000E+01
 N20      -2.01159530831358E-29  3.57565968419058E+01  9.46633086265214E-30 -2.67407771722094E+02 -9.46633086265214E-30  6.63227731036002E+01
 N23       6.20075476085697E-31  5.62512999143413E-15 -1.18329135783152E-29  5.69767721587482E+01 -4.78306732335493E-31  8.17124146124115E-14
 N24      -1.87983139155615E-29 -2.84217094304040E-14 -1.47254035641256E-29 -6.54883793505803E+02  1.22593062920983E-29 -1.23160740865084E-13
 

 ------>
 CHAMP AUX NOEUDS DE NOM SYMBOLIQUE  PRAC_NOEU                                   
 NUMERO D'ORDRE: 1 FREQ:   3.20000000000000E+01                                  
 NOEUD        PRES_R       PRES_I  
 N1        4.78352612702578E-14  7.81209101327218E+02
 N2        2.75404045439098E-14  4.49768938490422E+02
 N3        1.41012455288102E-14  2.30290815909174E+02
 N4        1.36894785511714E-14  2.23566150839615E+02
 N5        2.75404045439101E-14  4.49768938490426E+02
 N6        4.78352612702580E-14  7.81209101327218E+02
 N7        1.36894785511717E-14  2.23566150839619E+02
 N8        1.41012455288098E-14  2.30290815909168E+02
 N9        1.51520804423525E-14  2.47452252402929E+02
 N11       3.45330625173770E-14  5.63967709570143E+02
 N13       1.51520804423526E-14  2.47452252402930E+02
 N15       3.45330625173768E-14  5.63967709570141E+02
 N17       1.51520804423528E-14  2.47452252402933E+02
 N18       1.51520804423525E-14  2.47452252402928E+02
 N19       3.45330625173769E-14  5.63967709570143E+02
 N20       3.45330625173769E-14  5.63967709570142E+02
 N23       6.42566660866401E-15  1.04939099389927E+02
 N24       5.65096909237027E-14  9.22873288250080E+02
 
   
   !----------------------------------------------------------------------------------------------------------------!
   ! <EXCEPTION> <MATRICE0_12>                                                                                      !
   !                                                                                                                !
   !  Une des charges renseignées pour l'assemblage des vecteurs est déjà présente dans le mot-clé                  !
   !  CHARGE définissant les conditions de Dirichlet. Il est interdit de renseigner plus d'une fois la même charge. !
   !----------------------------------------------------------------------------------------------------------------!
   

 --------------------------------------------------------------------------------
 ASTER 11.03.00 CONCEPT Pr_2 CALCULE LE 27/06/2016 A 14:58:12 DE TYPE ACOU_HARMO 

                    ENTITES TOPOLOGIQUES SELECTIONNEES 
 GROUP_MA : ENTREE SORTIE                                                        


 ======>

 ------>
 CHAMP AUX NOEUDS DE NOM SYMBOLIQUE  INTE_NOEU                                   
 NUMERO D'ORDRE: 1 FREQ:   4.40000000000000E+01                                  
 NOEUD        INTX_R       INTX_I       INTY_R       INTY_I       INTZ_R       INTZ_I  
 N1        1.85382312726938E-28 -1.47877072978180E+03 -7.69928243495708E-28 -6.82218971967318E+03 -5.61668964517360E-28  1.47877072978179E+03
 N2       -3.18068716985112E-27 -2.24670866554635E+03 -6.05845175209737E-28 -9.44013697713963E+03  6.31088724176809E-28 -2.24670866554629E+03
 N3       -4.13363114335810E-28 -2.75505484380765E+02  1.51461293802434E-28  2.76139845933061E+03  3.84964121747854E-28  2.75505484380760E+02
 N4       -4.15335266598863E-28 -4.21587264511401E+02 -1.00974195868290E-28  8.02343946567845E+03  6.83547974374007E-28 -4.21587264511379E+02
 N5       -2.77679038637796E-28  2.24670866554629E+03 -8.07793566946316E-28 -9.44013697713963E+03 -5.04870979341448E-28  2.24670866554628E+03
 N6        4.81205152184817E-28  1.47877072978181E+03 -7.57306469012171E-29 -6.82218971967315E+03  1.13674856442348E-27 -1.47877072978178E+03
 N7        1.35684075698014E-28  4.21587264511391E+02  4.03896783473158E-28  8.02343946567845E+03 -4.51228437786419E-28  4.21587264511380E+02
 N8        1.37892886232633E-27  2.75505484380778E+02  2.77679038637796E-28  2.76139845933061E+03  2.46124602428956E-28 -2.75505484380769E+02
 N9        6.75264934869186E-28 -4.29141493497699E+02 -2.01948391736579E-28  4.22321833471190E+03  5.67979851759128E-29  3.36070633760049E+02
 N11      -4.54383881407303E-28  9.28934978485466E+02  0.00000000000000E+00 -6.74526361124401E+03 -3.47098798297245E-29  3.70974800069432E+02
 N13      -1.98792948115695E-28  4.29141493497704E+02  1.51461293802434E-28  4.22321833471192E+03  3.43943354676361E-28 -3.36070633760051E+02
 N15      -7.69928243495708E-28 -9.28934978485488E+02  1.00974195868290E-28 -6.74526361124402E+03  1.92482060873927E-28 -3.70974800069432E+02
 N17      -2.96611700363100E-28  3.36070633760050E+02  3.53409685539013E-28  4.22321833471191E+03  1.41994962939782E-28 -4.29141493497708E+02
 N18      -1.86171173632159E-28 -3.36070633760049E+02  1.36315164422191E-27  4.22321833471189E+03  1.30635365904600E-27  4.29141493497708E+02
 N19      -1.23062301214478E-28  3.70974800069429E+02 -3.53409685539013E-28 -6.74526361124402E+03 -5.93223400726201E-28  9.28934978485461E+02
 N20      -1.26217744835362E-28 -3.70974800069431E+02 -2.57484199464138E-27 -6.74526361124394E+03  1.37577341870544E-27 -9.28934978485435E+02
 N23      -2.40576220637302E-28 -4.77484718430787E-12 -4.37554848762588E-28  8.67098122877792E+03  3.12278681429468E-28  3.56218758194397E-12
 N24       2.98899726470850E-28  4.31062593027794E-12  9.76083893393465E-28 -5.97234037842194E+03  3.78916989626155E-28  6.44225413755824E-12
 

 ------>
 CHAMP AUX NOEUDS DE NOM SYMBOLIQUE  PRAC_NOEU                                   
 NUMERO D'ORDRE: 1 FREQ:   4.40000000000000E+01                                  
 NOEUD        PRES_R       PRES_I  
 N1       -1.94966841030561E-13 -3.18405014680648E+03
 N2       -2.51420838624859E-13 -4.10601389396367E+03
 N3       -1.46297317738493E-13 -2.38921651271782E+03
 N4       -2.07156431807816E-13 -3.38312127140733E+03
 N5       -2.51420838624858E-13 -4.10601389396366E+03
 N6       -1.94966841030561E-13 -3.18405014680647E+03
 N7       -2.07156431807815E-13 -3.38312127140733E+03
 N8       -1.46297317738494E-13 -2.38921651271782E+03
 N9       -1.48823852933852E-13 -2.43047796372748E+03
 N11      -1.77099491398567E-13 -2.89225418335917E+03
 N13      -1.48823852933852E-13 -2.43047796372749E+03
 N15      -1.77099491398567E-13 -2.89225418335917E+03
 N17      -1.48823852933852E-13 -2.43047796372748E+03
 N18      -1.48823852933853E-13 -2.43047796372748E+03
 N19      -1.77099491398567E-13 -2.89225418335917E+03
 N20      -1.77099491398567E-13 -2.89225418335914E+03
 N23      -2.15583544295942E-13 -3.52074646250723E+03
 N24      -1.52512363578025E-13 -2.49071591391430E+03
 
   
   !----------------------------------------------------------------------------------------------------------------!
   ! <EXCEPTION> <MATRICE0_12>                                                                                      !
   !                                                                                                                !
   !  Une des charges renseignées pour l'assemblage des vecteurs est déjà présente dans le mot-clé                  !
   !  CHARGE définissant les conditions de Dirichlet. Il est interdit de renseigner plus d'une fois la même charge. !
   !----------------------------------------------------------------------------------------------------------------!
   

 --------------------------------------------------------------------------------
 ASTER 11.03.00 CONCEPT Pr_3 CALCULE LE 27/06/2016 A 14:58:12 DE TYPE ACOU_HARMO 

                    ENTITES TOPOLOGIQUES SELECTIONNEES 
 GROUP_MA : ENTREE SORTIE                                                        


 ======>

 ------>
 CHAMP AUX NOEUDS DE NOM SYMBOLIQUE  INTE_NOEU                                   
 NUMERO D'ORDRE: 1 FREQ:   5.60000000000000E+01                                  
 NOEUD        INTX_R       INTX_I       INTY_R       INTY_I       INTZ_R       INTZ_I  
 N1        6.51796322938861E-29  3.23331381930486E+00  2.35869410661083E-28  6.01180910695930E+01 -7.33640641855541E-29 -3.23331381928503E+00
 N2       -2.98978283078763E-28 -6.24973570980135E+01  4.94615787573574E-28  7.77353151356680E+01 -2.20092192556662E-28 -6.24973570980378E+01
 N3        1.18644680145240E-27 -3.78948602692809E+02 -1.04760728213350E-27 -2.53525549687844E+02  1.37892886232633E-27  3.78948602692884E+02
 N4       -6.91831013878827E-28 -5.56753751285750E+01 -1.11899919405601E-27  4.12623052081674E+02  2.98583852626153E-28 -5.56753751286234E+01
 N5       -7.89649766126233E-28  6.24973570980000E+01 -1.27006605740583E-27  7.77353151356560E+01 -5.05659840246669E-28  6.24973570980332E+01
 N6       -2.02342822189190E-28 -3.23331381930229E+00  3.67609181832992E-28  6.01180910695958E+01  7.12933043093489E-29  3.23331381928764E+00
 N7        2.07075987620516E-28  5.56753751285864E+01  7.86494322505349E-28  4.12623052081665E+02  2.82412204069122E-28  5.56753751286347E+01
 N8        2.39182626463011E-27  3.78948602692808E+02 -6.09000618830621E-28 -2.53525549687844E+02  1.60612080302998E-27 -3.78948602692883E+02
 N9        1.06890652657447E-28  1.33054096823003E+01  3.91965262281690E-28 -1.43188982911866E+01 -1.09355842986263E-28  5.38708210246139E+00
 N11       5.75868460811339E-28 -9.34356034831605E+01  7.02086205646701E-28 -1.77263062699460E+02 -2.05547569616650E-28  2.05749696750134E+00
 N13       6.13339353809337E-29 -1.33054096823004E+01 -3.28264744185094E-28 -1.43188982911866E+01 -1.42981039071308E-28 -5.38708210246131E+00
 N15      -4.10207670714926E-29  9.34356034831681E+01 -5.83757069863549E-29 -1.77263062699463E+02 -3.84569691295243E-30 -2.05749696750060E+00
 N17      -3.97388681005085E-29  5.38708210246660E+00  3.56565129159897E-28 -1.43188982911937E+01 -2.86948154274143E-29  1.33054096823270E+01
 N18      -1.72661930630249E-28 -5.38708210246654E+00 -6.86802025608043E-28 -1.43188982911937E+01 -5.95589983441864E-29 -1.33054096823268E+01
 N19      -1.80673799198900E-28  2.05749696749960E+00 -2.82412204069122E-28 -1.77263062699282E+02 -6.29511002366367E-28 -9.34356034831459E+01
 N20       1.05756665106192E-29 -2.05749696749939E+00  2.14570166220115E-28 -1.77263062699333E+02 -3.86541843558296E-28  9.34356034831573E+01
 N23      -2.24520550502676E-28  7.57912251477440E-14  8.12526732377642E-29  1.65258781279137E+02  1.92183453272356E-28  1.13686837721616E-13
 N24       1.25012325055194E-28 -5.04959037546845E-12 -1.99844762655990E-28 -3.75092488102483E+02  1.05333120462124E-28 -4.98090457767830E-12
 

 ------>
 CHAMP AUX NOEUDS DE NOM SYMBOLIQUE  PRAC_NOEU                                   
 NUMERO D'ORDRE: 1 FREQ:   5.60000000000000E+01                                  
 NOEUD        PRES_R       PRES_I  
 N1        1.62772979291529E-14  2.65828448504250E+02
 N2        1.35072303266252E-14  2.20589811462837E+02
 N3       -6.04995581043190E-14 -9.88032764164151E+02
 N4       -7.73120114423157E-14 -1.26260096374146E+03
 N5        1.35072303266201E-14  2.20589811462822E+02
 N6        1.62772979291531E-14  2.65828448504251E+02
 N7       -7.73120114423162E-14 -1.26260096374146E+03
 N8       -6.04995581043163E-14 -9.88032764164150E+02
 N9       -1.09907026411087E-14 -1.79491795491806E+02
 N11      -2.54772055652360E-14 -4.16074342136460E+02
 N13      -1.09907026411151E-14 -1.79491795491806E+02
 N15      -2.54772055652373E-14 -4.16074342136454E+02
 N17      -1.09907026411200E-14 -1.79491795491980E+02
 N18      -1.09907026411284E-14 -1.79491795491979E+02
 N19      -2.54772055652180E-14 -4.16074342136117E+02
 N20      -2.54772055652210E-14 -4.16074342136202E+02
 N23      -4.81434708553094E-14 -7.86242545831644E+02
 N24      -4.80052619000191E-14 -7.83985422302044E+02
 
   
   !----------------------------------------------------------------------------------------------------------------!
   ! <EXCEPTION> <MATRICE0_12>                                                                                      !
   !                                                                                                                !
   !  Une des charges renseignées pour l'assemblage des vecteurs est déjà présente dans le mot-clé                  !
   !  CHARGE définissant les conditions de Dirichlet. Il est interdit de renseigner plus d'une fois la même charge. !
   !----------------------------------------------------------------------------------------------------------------!
   

 --------------------------------------------------------------------------------
 ASTER 11.03.00 CONCEPT Pr_4 CALCULE LE 27/06/2016 A 14:58:12 DE TYPE ACOU_HARMO 

                    ENTITES TOPOLOGIQUES SELECTIONNEES 
 GROUP_MA : ENTREE SORTIE                                                        


 ======>

 ------>
 CHAMP AUX NOEUDS DE NOM SYMBOLIQUE  INTE_NOEU                                   
 NUMERO D'ORDRE: 1 FREQ:   6.80000000000000E+01                                  
 NOEUD        INTX_R       INTX_I       INTY_R       INTY_I       INTZ_R       INTZ_I  
 N1        4.73316543132607E-30  4.26231871741301E+02 -1.02551917678732E-29 -9.98104153436556E+02 -2.83989925879564E-29 -4.26231871741299E+02
 N2        2.52435489670724E-29 -1.12018475440548E+03 -2.52435489670724E-29  1.00941258196732E+03  2.52435489670724E-29 -1.12018475440547E+03
 N3       -6.81575822110954E-28  6.97152571267688E+02 -1.26217744835362E-27  1.44476804896075E+03  6.75264934869186E-28 -6.97152571267687E+02
 N4       -1.81438008200833E-29 -1.12205899263807E+02 -3.15544362088405E-30 -5.35294829323016E+02 -1.34106353887572E-29 -1.12205899263809E+02
 N5        3.78653234506086E-29  1.12018475440547E+03  1.13595970351826E-28  1.00941258196732E+03  7.57306469012171E-29  1.12018475440547E+03
 N6       -4.73316543132607E-30 -4.26231871741298E+02 -3.86541843558296E-29 -9.98104153436548E+02  1.10440526730942E-29  4.26231871741296E+02
 N7        8.67746995743113E-30  1.12205899263809E+02  6.31088724176809E-30 -5.35294829323013E+02  2.12992444409673E-29  1.12205899263806E+02
 N8        4.10207670714926E-28 -6.97152571267726E+02 -7.57306469012171E-28  1.44476804896084E+03 -4.16518557956694E-28  6.97152571267723E+02
 N9        7.57306469012171E-29  2.49398740931870E+03  1.00974195868290E-28  1.01334301284796E+04 -9.46633086265214E-29 -6.29147140734280E+02
 N11       0.00000000000000E+00  1.40006891056893E+03 -1.26217744835362E-29 -1.07953476118382E+03  4.41762106923767E-29 -5.11607272491772E+02
 N13      -1.76704842769507E-28 -2.49398740931871E+03  2.01948391736579E-28  1.01334301284797E+04  1.45150406560666E-28  6.29147140734275E+02
 N15       3.78653234506086E-29 -1.40006891056891E+03 -1.26217744835362E-29 -1.07953476118381E+03  0.00000000000000E+00  5.11607272491772E+02
 N17      -1.57772181044202E-28 -6.29147140734273E+02  3.02922587604869E-28  1.01334301284797E+04  7.57306469012171E-29  2.49398740931872E+03
 N18       8.83524213847533E-29  6.29147140734286E+02  1.00974195868290E-28  1.01334301284797E+04 -1.76704842769507E-28 -2.49398740931874E+03
 N19      -6.31088724176809E-30 -5.11607272491776E+02 -1.26217744835362E-29 -1.07953476118383E+03 -2.52435489670724E-29  1.40006891056894E+03
 N20       0.00000000000000E+00  5.11607272491776E+02 -3.78653234506086E-29 -1.07953476118384E+03  1.26217744835362E-29 -1.40006891056895E+03
 N23      -6.93933507744201E-31  5.15380331004659E-12  1.17803228513004E-28 -1.20131969111951E+03 -3.28173872341095E-30 -6.97279271359245E-12
 N24       2.29409335974544E-29  9.09494701772928E-13  0.00000000000000E+00 -1.02381726427012E+03  3.72715472572301E-29 -2.12215430413683E-12
 

 ------>
 CHAMP AUX NOEUDS DE NOM SYMBOLIQUE  PRAC_NOEU                                   
 NUMERO D'ORDRE: 1 FREQ:   6.80000000000000E+01                                  
 NOEUD        PRES_R       PRES_I  
 N1       -9.17274963699274E-14 -1.49802369848665E+03
 N2        7.23578229043780E-14  1.18169292492752E+03
 N3       -2.64195086569360E-14 -4.31463319470245E+02
 N4        6.79812916289431E-14  1.11021874513165E+03
 N5        7.23578229043779E-14  1.18169292492752E+03
 N6       -9.17274963699269E-14 -1.49802369848664E+03
 N7        6.79812916289427E-14  1.11021874513164E+03
 N8       -2.64195086569377E-14 -4.31463319470271E+02
 N9       -2.77587811106048E-13 -4.53335298470246E+03
 N11      -1.29864612524825E-13 -2.12085007065289E+03
 N13      -2.77587811106049E-13 -4.53335298470247E+03
 N15      -1.29864612524824E-13 -2.12085007065287E+03
 N17      -2.77587811106050E-13 -4.53335298470248E+03
 N18      -2.77587811106049E-13 -4.53335298470248E+03
 N19      -1.29864612524825E-13 -2.12085007065289E+03
 N20      -1.29864612524825E-13 -2.12085007065290E+03
 N23       2.07886889510424E-13  3.39505055098601E+03
 N24       2.14833819030104E-13  3.50850251974169E+03
 
   
   !----------------------------------------------------------------------------------------------------------------!
   ! <EXCEPTION> <MATRICE0_12>                                                                                      !
   !                                                                                                                !
   !  Une des charges renseignées pour l'assemblage des vecteurs est déjà présente dans le mot-clé                  !
   !  CHARGE définissant les conditions de Dirichlet. Il est interdit de renseigner plus d'une fois la même charge. !
   !----------------------------------------------------------------------------------------------------------------!
   

 --------------------------------------------------------------------------------
 ASTER 11.03.00 CONCEPT Pr_5 CALCULE LE 27/06/2016 A 14:58:12 DE TYPE ACOU_HARMO 

                    ENTITES TOPOLOGIQUES SELECTIONNEES 
 GROUP_MA : ENTREE SORTIE                                                        


 ======>

 ------>
 CHAMP AUX NOEUDS DE NOM SYMBOLIQUE  INTE_NOEU                                   
 NUMERO D'ORDRE: 1 FREQ:   8.00000000000000E+01                                  
 NOEUD        INTX_R       INTX_I       INTY_R       INTY_I       INTZ_R       INTZ_I  
 N1       -9.36772324949952E-31  1.92344007859177E+01 -9.86076131526265E-32 -5.00524248242953E+01  8.38164711797325E-31 -1.92344007859177E+01
 N2       -3.94430452610506E-31 -2.96019071525597E+01  3.45126646034193E-31 -2.20709691921900E+00 -1.18329135783152E-30 -2.96019071525598E+01
 N3        7.88860905221012E-31  5.70132443796318E+01  3.15544362088405E-30  2.96461386782603E+02  0.00000000000000E+00 -5.70132443796315E+01
 N4        1.37896584018126E-31 -1.34972887999718E+00 -8.32001735975286E-32  8.07389714924185E+00 -7.39557098644699E-32 -1.34972887999718E+00
 N5        0.00000000000000E+00  2.96019071525594E+01 -2.46519032881566E-32 -2.20709691921882E+00  0.00000000000000E+00  2.96019071525594E+01
 N6       -1.07235779303481E-30 -1.92344007859176E+01 -5.91645678915759E-31 -5.00524248242954E+01  1.07235779303481E-30  1.92344007859177E+01
 N7       -1.38666955995881E-31  1.34972887999718E+00 -3.45126646034193E-31  8.07389714924185E+00  6.62519900869209E-32  1.34972887999719E+00
 N8        2.36658271566304E-30 -5.70132443796316E+01 -6.31088724176809E-30  2.96461386782602E+02 -5.52202633654708E-30  5.70132443796318E+01
 N9       -1.18329135783152E-30  3.57689541394430E+01  3.15544362088405E-30  2.70701943657977E+02 -1.97215226305253E-30 -3.32072799154338E+01
 N11       4.93038065763132E-32 -5.16530437076707E-01  9.24446373305873E-33 -1.32819235290850E-01 -2.15704153771370E-32  1.55945733157480E-01
 N13       1.57772181044202E-30 -3.57689541394428E+01  0.00000000000000E+00  2.70701943657977E+02 -3.94430452610506E-31  3.32072799154339E+01
 N15       1.84889274661175E-32  5.16530437076729E-01 -4.62223186652937E-33 -1.32819235290855E-01 -1.69481835106077E-32 -1.55945733157484E-01
 N17       3.94430452610506E-31 -3.32072799154339E+01  3.15544362088405E-30  2.70701943657977E+02  0.00000000000000E+00  3.57689541394432E+01
 N18       1.18329135783152E-30  3.32072799154338E+01 -3.15544362088405E-30  2.70701943657976E+02 -3.15544362088405E-30 -3.57689541394428E+01
 N19      -5.23852944873328E-32  1.55945733157488E-01  4.00593428432545E-32 -1.32819235290859E-01  1.84889274661175E-31 -5.16530437076733E-01
 N20       3.08148791101958E-33 -1.55945733157478E-01 -9.24446373305873E-33 -1.32819235290848E-01  0.00000000000000E+00  5.16530437076707E-01
 N23       2.16009945812331E-32  5.92118946466750E-16 -1.08468374467889E-30  8.03296949251675E+00 -1.74878949401403E-32 -5.92118946466750E-16
 N24      -5.53995102176453E-32  2.07241631263363E-15 -3.28692043842088E-32  5.65897011841642E-01  2.88521603269581E-32  1.77635683940025E-15
 

 ------>
 CHAMP AUX NOEUDS DE NOM SYMBOLIQUE  PRAC_NOEU                                   
 NUMERO D'ORDRE: 1 FREQ:   8.00000000000000E+01                                  
 NOEUD        PRES_R       PRES_I  
 N1       -2.88746849278322E-14 -4.71559390804530E+02
 N2       -1.73533207460087E-14 -2.83401234675839E+02
 N3       -3.83046718706995E-14 -6.25562764666003E+02
 N4       -4.45896574732392E-15 -7.28204368872466E+01
 N5       -1.73533207460086E-14 -2.83401234675837E+02
 N6       -2.88746849278322E-14 -4.71559390804530E+02
 N7       -4.45896574732391E-15 -7.28204368872465E+01
 N8       -3.83046718706993E-14 -6.25562764666001E+02
 N9       -4.80766988163711E-14 -7.85152075681641E+02
 N11       6.63245798263569E-16  1.08316258814435E+01
 N13      -4.80766988163711E-14 -7.85152075681640E+02
 N15       6.63245798263599E-16  1.08316258814440E+01
 N17      -4.80766988163711E-14 -7.85152075681641E+02
 N18      -4.80766988163710E-14 -7.85152075681640E+02
 N19       6.63245798263603E-16  1.08316258814441E+01
 N20       6.63245798263569E-16  1.08316258814435E+01
 N23      -3.15350391500229E-15 -5.15006272371411E+01
 N24      -4.03321378273195E-15 -6.58673796484021E+01
 
   
   !----------------------------------------------------------------------------------------------------------------!
   ! <EXCEPTION> <MATRICE0_12>                                                                                      !
   !                                                                                                                !
   !  Une des charges renseignées pour l'assemblage des vecteurs est déjà présente dans le mot-clé                  !
   !  CHARGE définissant les conditions de Dirichlet. Il est interdit de renseigner plus d'une fois la même charge. !
   !----------------------------------------------------------------------------------------------------------------!
   

 --------------------------------------------------------------------------------
 ASTER 11.03.00 CONCEPT Pr_6 CALCULE LE 27/06/2016 A 14:58:12 DE TYPE ACOU_HARMO 

                    ENTITES TOPOLOGIQUES SELECTIONNEES 
 GROUP_MA : ENTREE SORTIE                                                        


 ======>

 ------>
 CHAMP AUX NOEUDS DE NOM SYMBOLIQUE  INTE_NOEU                                   
 NUMERO D'ORDRE: 1 FREQ:   9.20000000000000E+01                                  
 NOEUD        INTX_R       INTX_I       INTY_R       INTY_I       INTZ_R       INTZ_I  
 N1        3.63615573500310E-31  5.93235255391197E+00  1.64859603239547E-31 -2.07890490767545E+01 -7.08742219534503E-32 -5.93235255391196E+00
 N2        1.23259516440783E-31 -3.62361021356725E+00 -1.10933564796705E-31  7.70042599492089E-01 -4.93038065763132E-32 -3.62361021356725E+00
 N3        1.18329135783152E-30  1.79378580962106E+01  1.57772181044202E-30  1.22363960130723E+02  0.00000000000000E+00 -1.79378580962104E+01
 N4        6.00890142648818E-32 -1.21433313142257E+00  2.55763496614625E-31  8.19253074815722E+00 -1.73333694994851E-32 -1.21433313142257E+00
 N5        4.93038065763132E-32  3.62361021356722E+00  3.69778549322349E-32  7.70042599492096E-01  2.46519032881566E-32  3.62361021356722E+00
 N6       -2.95822839457879E-31 -5.93235255391195E+00 -5.33097408606387E-31 -2.07890490767545E+01  1.97215226305253E-31  5.93235255391195E+00
 N7       -6.43260601425337E-32  1.21433313142257E+00  2.54222752659115E-31  8.19253074815723E+00  9.05187073862001E-32  1.21433313142258E+00
 N8       -3.15544362088405E-30 -1.79378580962105E+01  3.15544362088405E-30  1.22363960130723E+02  1.18329135783152E-30  1.79378580962105E+01
 N9       -1.08468374467889E-30  1.18095910805983E+01  7.88860905221012E-31  1.01559980485573E+02  2.95822839457879E-31 -1.25964407720938E+01
 N11      -2.15704153771370E-32  1.33544136609187E-01 -5.00741785540681E-33  2.01674749322504E-02  2.00296714216273E-32 -1.08300227172996E-01
 N13       9.86076131526265E-32 -1.18095910805983E+01  1.57772181044202E-30  1.01559980485573E+02  9.86076131526265E-32  1.25964407720938E+01
 N15      -3.69778549322349E-32 -1.33544136609184E-01  6.93334779979405E-33  2.01674749322499E-02  3.77482269099898E-32  1.08300227172993E-01
 N17       1.97215226305253E-31 -1.25964407720938E+01 -7.88860905221012E-31  1.01559980485574E+02  7.88860905221012E-31  1.18095910805984E+01
 N18      -5.91645678915759E-31  1.25964407720938E+01  0.00000000000000E+00  1.01559980485573E+02 -6.90253292068385E-31 -1.18095910805984E+01
 N19      -4.62223186652937E-33 -1.08300227172995E-01  3.85185988877447E-34  2.01674749322502E-02 -1.54074395550979E-33  1.33544136609187E-01
 N20      -6.39408741536562E-32  1.08300227172997E-01 -2.13778223826983E-32  2.01674749322501E-02  6.77927340424307E-32 -1.33544136609189E-01
 N23       3.47302020189991E-32 -2.36847578586700E-15  2.46519032881566E-31  1.22711077617113E+01 -3.47302020189991E-32  2.36847578586700E-15
 N24       8.75793412690299E-33  5.92118946466750E-16 -9.75804505156199E-33 -1.05721386264408E+00  1.88151484873204E-32  7.40148683083438E-16
 

 ------>
 CHAMP AUX NOEUDS DE NOM SYMBOLIQUE  PRAC_NOEU                                   
 NUMERO D'ORDRE: 1 FREQ:   9.20000000000000E+01                                  
 NOEUD        PRES_R       PRES_I  
 N1       -1.82712064294762E-14 -2.98391445471419E+02
 N2       -5.97078343990319E-15 -9.75102934831542E+01
 N3       -2.89254303883833E-14 -4.72388127066879E+02
 N4       -6.84047876636659E-15 -1.11713496023983E+02
 N5       -5.97078343990317E-15 -9.75102934831537E+01
 N6       -1.82712064294762E-14 -2.98391445471419E+02
 N7       -6.84047876636659E-15 -1.11713496023983E+02
 N8       -2.89254303883833E-14 -4.72388127066879E+02
 N9       -3.21406127739484E-14 -5.24896040169720E+02
 N11      -4.96148950570207E-16 -8.10272726659878E+00
 N13      -3.21406127739484E-14 -5.24896040169720E+02
 N15      -4.96148950570201E-16 -8.10272726659860E+00
 N17      -3.21406127739485E-14 -5.24896040169721E+02
 N18      -3.21406127739484E-14 -5.24896040169720E+02
 N19      -4.96148950570206E-16 -8.10272726659873E+00
 N20      -4.96148950570209E-16 -8.10272726659886E+00
 N23      -7.53025843051483E-15 -1.22978452820155E+02
 N24      -4.53721874626854E-15 -7.40984053431164E+01
 
   
   !----------------------------------------------------------------------------------------------------------------!
   ! <EXCEPTION> <MATRICE0_12>                                                                                      !
   !                                                                                                                !
   !  Une des charges renseignées pour l'assemblage des vecteurs est déjà présente dans le mot-clé                  !
   !  CHARGE définissant les conditions de Dirichlet. Il est interdit de renseigner plus d'une fois la même charge. !
   !----------------------------------------------------------------------------------------------------------------!
   

 --------------------------------------------------------------------------------
 ASTER 11.03.00 CONCEPT Pr_7 CALCULE LE 27/06/2016 A 14:58:12 DE TYPE ACOU_HARMO 

                    ENTITES TOPOLOGIQUES SELECTIONNEES 
 GROUP_MA : ENTREE SORTIE                                                        


 ======>

 ------>
 CHAMP AUX NOEUDS DE NOM SYMBOLIQUE  INTE_NOEU                                   
 NUMERO D'ORDRE: 1 FREQ:   1.04000000000000E+02                                  
 NOEUD        INTX_R       INTX_I       INTY_R       INTY_I       INTZ_R       INTZ_I  
 N1        3.08148791101958E-32  2.85764140034454E+00  4.93038065763132E-32 -1.12041840709757E+01 -9.24446373305873E-32 -2.85764140034454E+00
 N2        0.00000000000000E+00 -1.22704290246233E+00  5.54667823983524E-32  3.29892039681385E-01 -3.69778549322349E-32 -1.22704290246233E+00
 N3        1.97215226305253E-31  8.59484452183648E+00 -7.88860905221012E-31  6.64290104982614E+01  3.94430452610506E-31 -8.59484452183644E+00
 N4        6.47112461314111E-32 -8.63869973055682E-01  6.49038391258498E-32  6.20924455548161E+00 -4.35260167431515E-32 -8.63869973055681E-01
 N5        4.93038065763132E-32  1.22704290246232E+00  5.54667823983524E-32  3.29892039681388E-01  3.69778549322349E-32  1.22704290246232E+00
 N6       -3.38963670212154E-32 -2.85764140034453E+00 -1.87970762572194E-31 -1.12041840709757E+01  5.54667823983524E-32  2.85764140034453E+00
 N7       -8.01186856865090E-32  8.63869973055680E-01  1.01303915074769E-31  6.20924455548161E+00  3.12000650990732E-32  8.63869973055685E-01
 N8       -3.94430452610506E-31 -8.59484452183642E+00  0.00000000000000E+00  6.64290104982614E+01 -8.87468518373638E-31  8.59484452183644E+00
 N9       -6.90253292068385E-31  5.97560473860881E+00  3.94430452610506E-31  5.40047894070353E+01 -2.46519032881566E-31 -6.55311892390437E+00
 N11       6.16297582203915E-33  9.54335565209204E-02  3.65926689433575E-33 -1.21940786057724E-02 -8.47409175530384E-33 -1.10520276081963E-01
 N13       3.94430452610506E-31 -5.97560473860878E+00  0.00000000000000E+00  5.40047894070353E+01  4.93038065763132E-32  6.55311892390437E+00
 N15      -7.70371977754894E-33 -9.54335565209198E-02  5.68149333594235E-33 -1.21940786057725E-02  1.61778115328528E-32  1.10520276081962E-01
 N17       9.86076131526265E-32 -6.55311892390437E+00 -3.94430452610506E-31  5.40047894070354E+01  9.86076131526265E-32  5.97560473860883E+00
 N18       0.00000000000000E+00  6.55311892390437E+00  0.00000000000000E+00  5.40047894070353E+01 -6.40949485492072E-31 -5.97560473860879E+00
 N19      -1.38666955995881E-32 -1.10520276081962E-01  2.88889491658085E-34 -1.21940786057720E-02  6.93334779979405E-33  9.54335565209186E-02
 N20       7.70371977754894E-33  1.10520276081962E-01  9.62964972193618E-34 -1.21940786057724E-02 -6.16297582203915E-33 -9.54335565209198E-02
 N23       8.71828800790050E-33 -2.07241631263363E-15 -2.62953635073671E-31  9.09718383000233E+00 -6.26913281541123E-33  2.07241631263363E-15
 N24      -8.51097768178316E-33 -2.22044604925031E-16  1.43802769180914E-32 -1.06390987312414E+00  1.58094930439512E-32  2.96059473233375E-16
 

 ------>
 CHAMP AUX NOEUDS DE NOM SYMBOLIQUE  PRAC_NOEU                                   
 NUMERO D'ORDRE: 1 FREQ:   1.04000000000000E+02                                  
 NOEUD        PRES_R       PRES_I  
 N1       -1.37631998897885E-14 -2.24770111666008E+02
 N2       -3.59087967959775E-15 -5.86435155360364E+01
 N3       -2.35635744172991E-14 -3.84822373825742E+02
 N4       -7.02280288175580E-15 -1.14691074792264E+02
 N5       -3.59087967959774E-15 -5.86435155360361E+01
 N6       -1.37631998897885E-14 -2.24770111666008E+02
 N7       -7.02280288175580E-15 -1.14691074792264E+02
 N8       -2.35635744172991E-14 -3.84822373825742E+02
 N9       -2.52371642416232E-14 -4.12154169825852E+02
 N11      -6.92102162436820E-16 -1.13028860716198E+01
 N13      -2.52371642416232E-14 -4.12154169825852E+02
 N15      -6.92102162436818E-16 -1.13028860716197E+01
 N17      -2.52371642416232E-14 -4.12154169825852E+02
 N18      -2.52371642416232E-14 -4.12154169825851E+02
 N19      -6.92102162436812E-16 -1.13028860716197E+01
 N20      -6.92102162436817E-16 -1.13028860716197E+01
 N23      -7.75165660075850E-15 -1.26594159330764E+02
 N24      -4.28517283437806E-15 -6.99821832280387E+01
 
   
   !----------------------------------------------------------------------------------------------------------------!
   ! <EXCEPTION> <MATRICE0_12>                                                                                      !
   !                                                                                                                !
   !  Une des charges renseignées pour l'assemblage des vecteurs est déjà présente dans le mot-clé                  !
   !  CHARGE définissant les conditions de Dirichlet. Il est interdit de renseigner plus d'une fois la même charge. !
   !----------------------------------------------------------------------------------------------------------------!
   

 --------------------------------------------------------------------------------
 ASTER 11.03.00 CONCEPT Pr_8 CALCULE LE 27/06/2016 A 14:58:12 DE TYPE ACOU_HARMO 

                    ENTITES TOPOLOGIQUES SELECTIONNEES 
 GROUP_MA : ENTREE SORTIE                                                        


 ======>

 ------>
 CHAMP AUX NOEUDS DE NOM SYMBOLIQUE  INTE_NOEU                                   
 NUMERO D'ORDRE: 1 FREQ:   1.16000000000000E+02                                  
 NOEUD        INTX_R       INTX_I       INTY_R       INTY_I       INTZ_R       INTZ_I  
 N1        9.24446373305873E-32  1.65668566305008E+00 -3.08148791101958E-33 -6.91298447615424E+00 -2.92741351546860E-32 -1.65668566305008E+00
 N2        2.46519032881566E-32 -5.85046138891575E-01 -3.54371109767251E-32  1.62261361198824E-01  3.08148791101958E-32 -5.85046138891575E-01
 N3        2.46519032881566E-31  4.94464243144057E+00  7.88860905221012E-31  4.13623591382983E+01 -1.08468374467889E-30 -4.94464243144053E+00
 N4       -4.77630626208034E-32 -6.13410193842191E-01  3.23556230657056E-32  4.59338312885416E+00  3.00445071324409E-32 -6.13410193842193E-01
 N5        6.16297582203915E-33  5.85046138891572E-01 -9.24446373305873E-33  1.62261361198825E-01 -1.23259516440783E-32  5.85046138891571E-01
 N6        0.00000000000000E+00 -1.65668566305008E+00 -2.77333911991762E-32 -6.91298447615424E+00 -1.23259516440783E-32  1.65668566305008E+00
 N7        3.38963670212154E-32  6.13410193842189E-01 -3.85185988877447E-32  4.59338312885416E+00 -4.62223186652937E-33  6.13410193842196E-01
 N8       -4.93038065763132E-32 -4.94464243144053E+00 -3.94430452610506E-31  4.13623591382983E+01  2.95822839457879E-31  4.94464243144052E+00
 N9        3.45126646034193E-31  3.58599244557665E+00  0.00000000000000E+00  3.33265039165137E+01 -4.93038065763132E-32 -3.97711293913749E+00
 N11      -2.31111593326468E-33  6.02628404240656E-02 -1.73333694994851E-33 -2.50415518744180E-02  1.00148357108136E-32 -8.68433865005514E-02
 N13      -3.94430452610506E-31 -3.58599244557663E+00 -7.88860905221012E-31  3.33265039165137E+01 -2.46519032881566E-31  3.97711293913748E+00
 N15       4.62223186652937E-33 -6.02628404240655E-02 -2.11852293882596E-33 -2.50415518744181E-02 -1.07852076885685E-32  8.68433865005511E-02
 N17       9.86076131526265E-32 -3.97711293913749E+00  0.00000000000000E+00  3.33265039165138E+01 -2.21867129593410E-31  3.58599244557668E+00
 N18       0.00000000000000E+00  3.97711293913749E+00  0.00000000000000E+00  3.33265039165137E+01  7.39557098644699E-32 -3.58599244557666E+00
 N19      -1.54074395550979E-33 -8.68433865005510E-02  9.62964972193618E-34 -2.50415518744178E-02 -1.54074395550979E-33  6.02628404240651E-02
 N20      -6.93334779979405E-33  8.68433865005514E-02 -3.85185988877447E-34 -2.50415518744182E-02  0.00000000000000E+00 -6.02628404240657E-02
 N23      -7.90919084108844E-32 -1.77635683940025E-15  3.28692043842088E-31  6.59583660669896E+00  7.90919084108844E-32  1.77635683940025E-15
 N24      -7.16122327608785E-33  0.00000000000000E+00 -4.10865054802610E-33 -8.60272825120735E-01  5.47771058532534E-33  0.00000000000000E+00
 

 ------>
 CHAMP AUX NOEUDS DE NOM SYMBOLIQUE  PRAC_NOEU                                   
 NUMERO D'ORDRE: 1 FREQ:   1.16000000000000E+02                                  
 NOEUD        PRES_R       PRES_I  
 N1       -1.11934470699095E-14 -1.82802863286016E+02
 N2       -2.58491842871410E-15 -4.22149215678156E+01
 N3       -2.00854833984085E-14 -3.28020836904041E+02
 N4       -6.70080654838290E-15 -1.09432475601100E+02
 N5       -2.58491842871409E-15 -4.22149215678154E+01
 N6       -1.11934470699095E-14 -1.82802863286016E+02
 N7       -6.70080654838290E-15 -1.09432475601100E+02
 N8       -2.00854833984085E-14 -3.28020836904041E+02
 N9       -2.11121737425435E-14 -3.44787962655724E+02
 N11      -7.16771517879959E-16 -1.17057672200508E+01
 N13      -2.11121737425435E-14 -3.44787962655724E+02
 N15      -7.16771517879958E-16 -1.17057672200508E+01
 N17      -2.11121737425435E-14 -3.44787962655725E+02
 N18      -2.11121737425435E-14 -3.44787962655724E+02
 N19      -7.16771517879957E-16 -1.17057672200507E+01
 N20      -7.16771517879961E-16 -1.17057672200508E+01
 N23      -7.35894996747193E-15 -1.20180773306973E+02
 N24      -3.90234397727092E-15 -6.37301135313118E+01
 
   
   !----------------------------------------------------------------------------------------------------------------!
   ! <EXCEPTION> <MATRICE0_12>                                                                                      !
   !                                                                                                                !
   !  Une des charges renseignées pour l'assemblage des vecteurs est déjà présente dans le mot-clé                  !
   !  CHARGE définissant les conditions de Dirichlet. Il est interdit de renseigner plus d'une fois la même charge. !
   !----------------------------------------------------------------------------------------------------------------!
   

 --------------------------------------------------------------------------------
 ASTER 11.03.00 CONCEPT Pr_9 CALCULE LE 27/06/2016 A 14:58:12 DE TYPE ACOU_HARMO 

                    ENTITES TOPOLOGIQUES SELECTIONNEES 
 GROUP_MA : ENTREE SORTIE                                                        


 ======>

 ------>
 CHAMP AUX NOEUDS DE NOM SYMBOLIQUE  INTE_NOEU                                   
 NUMERO D'ORDRE: 1 FREQ:   1.28000000000000E+02                                  
 NOEUD        INTX_R       INTX_I       INTY_R       INTY_I       INTZ_R       INTZ_I  
 N1        7.70371977754894E-33  1.06709792714454E+00  4.00593428432545E-32 -4.63259769779001E+00 -1.23259516440783E-32 -1.06709792714454E+00
 N2        9.24446373305873E-33 -3.32606682838496E-01 -1.54074395550979E-33  9.06618102267318E-02  0.00000000000000E+00 -3.32606682838497E-01
 N3        2.46519032881566E-32  3.16352869302728E+00  5.91645678915759E-31  2.79433905303184E+01 -2.46519032881566E-32 -3.16352869302726E+00
 N4        8.47409175530384E-33 -4.47218207082732E-01  4.16000867987643E-32  3.44510041932574E+00 -1.84889274661175E-32 -4.47218207082733E-01
 N5        3.08148791101958E-33  3.32606682838495E-01  7.70371977754894E-33  9.06618102267323E-02 -3.08148791101958E-33  3.32606682838495E-01
 N6        4.00593428432545E-32 -1.06709792714454E+00  6.47112461314111E-32 -4.63259769779001E+00 -2.00296714216273E-32  1.06709792714454E+00
 N7       -3.19704370768281E-32  4.47218207082730E-01  1.30963236218332E-32  3.44510041932574E+00  2.90815421602473E-32  4.47218207082735E-01
 N8       -9.86076131526265E-32 -3.16352869302726E+00 -1.97215226305253E-31  2.79433905303184E+01 -1.47911419728940E-31  3.16352869302726E+00
 N9       -1.47911419728940E-31  2.36768989281886E+00  3.94430452610506E-31  2.24078186392689E+01 -9.86076131526265E-32 -2.64181946277475E+00
 N11       1.54074395550979E-33  3.93899403267752E-02  2.69630192214213E-33 -2.68195226520639E-02  7.70371977754894E-34 -6.61090190470914E-02
 N13       4.93038065763132E-32 -2.36768989281885E+00  0.00000000000000E+00  2.24078186392689E+01 -4.93038065763132E-32  2.64181946277475E+00
 N15      -1.15555796663234E-33 -3.93899403267750E-02  1.15555796663234E-33 -2.68195226520638E-02  2.31111593326468E-33  6.61090190470912E-02
 N17       2.46519032881566E-32 -2.64181946277475E+00  1.97215226305253E-31  2.24078186392690E+01  0.00000000000000E+00  2.36768989281888E+00
 N18       7.39557098644699E-32  2.64181946277475E+00  0.00000000000000E+00  2.24078186392689E+01 -7.39557098644699E-32 -2.36768989281887E+00
 N19      -5.39260384428426E-33 -6.61090190470909E-02  5.77778983316171E-34 -2.68195226520636E-02  2.69630192214213E-33  3.93899403267746E-02
 N20      -2.31111593326468E-33  6.61090190470914E-02  1.92592994438724E-33 -2.68195226520639E-02  1.15555796663234E-33 -3.93899403267752E-02
 N23      -8.96447507052640E-34 -1.18423789293350E-15 -2.46519032881566E-32  4.87844163025858E+00 -1.04605803832838E-33  1.18423789293350E-15
 N24      -3.76285011610460E-33 -3.70074341541719E-17  7.19013845904568E-33 -6.70708468544408E-01 -3.76285011610460E-33 -3.70074341541719E-17
 

 ------>
 CHAMP AUX NOEUDS DE NOM SYMBOLIQUE  PRAC_NOEU                                   
 NUMERO D'ORDRE: 1 FREQ:   1.28000000000000E+02                                  
 NOEUD        PRES_R       PRES_I  
 N1       -9.50520593797727E-15 -1.55231793274521E+02
 N2       -2.03268407171027E-15 -3.31962501045282E+01
 N3       -1.75969975306399E-14 -2.87380778570468E+02
 N4       -6.27232478578875E-15 -1.02434837377696E+02
 N5       -2.03268407171026E-15 -3.31962501045280E+01
 N6       -9.50520593797727E-15 -1.55231793274521E+02
 N7       -6.27232478578875E-15 -1.02434837377696E+02
 N8       -1.75969975306399E-14 -2.87380778570469E+02
 N9       -1.82895227323723E-14 -2.98690573398079E+02
 N11      -6.93614904103092E-16 -1.13275910178512E+01
 N13      -1.82895227323723E-14 -2.98690573398079E+02
 N15      -6.93614904103090E-16 -1.13275910178512E+01
 N17      -1.82895227323723E-14 -2.98690573398079E+02
 N18      -1.82895227323723E-14 -2.98690573398079E+02
 N19      -6.93614904103087E-16 -1.13275910178512E+01
 N20      -6.93614904103091E-16 -1.13275910178512E+01
 N23      -6.85987963447937E-15 -1.12030336244793E+02
 N24      -3.54275715146547E-15 -5.78576150108272E+01
 
   
   !----------------------------------------------------------------------------------------------------------------!
   ! <EXCEPTION> <MATRICE0_12>                                                                                      !
   !                                                                                                                !
   !  Une des charges renseignées pour l'assemblage des vecteurs est déjà présente dans le mot-clé                  !
   !  CHARGE définissant les conditions de Dirichlet. Il est interdit de renseigner plus d'une fois la même charge. !
   !----------------------------------------------------------------------------------------------------------------!
   

 --------------------------------------------------------------------------------
 ASTER 11.03.00 CONCEPT Pr_10 CALCULE LE 27/06/2016 A 14:58:12 DE TYPE ACOU_HARMO

                    ENTITES TOPOLOGIQUES SELECTIONNEES 
 GROUP_MA : ENTREE SORTIE                                                        


 ======>

 ------>
 CHAMP AUX NOEUDS DE NOM SYMBOLIQUE  INTE_NOEU                                   
 NUMERO D'ORDRE: 1 FREQ:   1.40000000000000E+02                                  
 NOEUD        INTX_R       INTX_I       INTY_R       INTY_I       INTZ_R       INTZ_I  
 N1       -1.54074395550979E-33  7.36305884915904E-01 -7.70371977754894E-33 -3.28463368663598E+00 -1.30963236218332E-32 -7.36305884915904E-01
 N2       -4.62223186652937E-33 -2.10529512591110E-01  9.24446373305873E-33  5.56239234676166E-02 -6.16297582203915E-33 -2.10529512591110E-01
 N3       -7.39557098644699E-32  2.17096356123033E+00 -1.97215226305253E-31  1.99460743898648E+01  2.46519032881566E-32 -2.17096356123030E+00
 N4        1.15555796663234E-33 -3.35269461777090E-01  2.92741351546860E-32  2.63624405081960E+00 -3.02371001268796E-32 -3.35269461777092E-01
 N5        0.00000000000000E+00  2.10529512591109E-01 -1.23259516440783E-32  5.56239234676169E-02 -3.08148791101958E-33  2.10529512591109E-01
 N6        4.31408307542741E-32 -7.36305884915904E-01  5.70075263538622E-32 -3.28463368663598E+00 -2.38815313104017E-32  7.36305884915904E-01
 N7        5.77778983316171E-34  3.35269461777090E-01 -4.69926906430486E-32  2.63624405081960E+00 -2.50370892770341E-33  3.35269461777093E-01
 N8       -1.47911419728940E-31 -2.17096356123031E+00  1.97215226305253E-31  1.99460743898648E+01  9.86076131526265E-32  2.17096356123031E+00
 N9        0.00000000000000E+00  1.66389735127484E+00 -1.97215226305253E-31  1.59495539261615E+01  4.93038065763132E-32 -1.86351823465339E+00
 N11      -1.54074395550979E-33  2.69672882650442E-02 -1.34815096107107E-33 -2.47196653670148E-02  5.00741785540681E-33 -5.06702994437756E-02
 N13      -8.62816615085482E-32 -1.66389735127483E+00  0.00000000000000E+00  1.59495539261615E+01  4.93038065763132E-32  1.86351823465339E+00
 N15      -1.73333694994851E-33 -2.69672882650441E-02  1.92592994438724E-34 -2.47196653670148E-02  2.31111593326468E-33  5.06702994437754E-02
 N17       2.46519032881566E-32 -1.86351823465339E+00 -1.97215226305253E-31  1.59495539261615E+01 -4.93038065763132E-32  1.66389735127486E+00
 N18      -2.46519032881566E-32  1.86351823465339E+00  0.00000000000000E+00  1.59495539261615E+01 -7.39557098644699E-32 -1.66389735127485E+00
 N19      -1.15555796663234E-33 -5.06702994437756E-02 -1.54074395550979E-33 -2.47196653670149E-02 -9.62964972193618E-34  2.69672882650443E-02
 N20       3.46667389989702E-33  5.06702994437759E-02  5.77778983316171E-34 -2.47196653670151E-02 -1.15555796663234E-33 -2.69672882650446E-02
 N23       2.37997793413353E-32 -4.44089209850063E-16  9.03903120565743E-32  3.69658679680979E+00  6.75865035999625E-33  4.44089209850063E-16
 N24       2.16284624115305E-33 -7.40148683083438E-17 -1.02716263700653E-33 -5.23461246454643E-01  3.65423753985532E-33  7.40148683083438E-17
 

 ------>
 CHAMP AUX NOEUDS DE NOM SYMBOLIQUE  PRAC_NOEU                                   
 NUMERO D'ORDRE: 1 FREQ:   1.40000000000000E+02                                  
 NOEUD        PRES_R       PRES_I  
 N1       -8.29884332821141E-15 -1.35530396747689E+02
 N2       -1.68367582408835E-15 -2.74965128763753E+01
 N3       -1.57067473936696E-14 -2.56510651146196E+02
 N4       -5.84529562558881E-15 -9.54609219516767E+01
 N5       -1.68367582408835E-15 -2.74965128763753E+01
 N6       -8.29884332821140E-15 -1.35530396747689E+02
 N7       -5.84529562558881E-15 -9.54609219516767E+01
 N8       -1.57067473936696E-14 -2.56510651146196E+02
 N9       -1.62045045051101E-14 -2.64639641672886E+02
 N11      -6.56833945767359E-16 -1.07269123836305E+01
 N13      -1.62045045051101E-14 -2.64639641672885E+02
 N15      -6.56833945767359E-16 -1.07269123836305E+01
 N17      -1.62045045051101E-14 -2.64639641672886E+02
 N18      -1.62045045051101E-14 -2.64639641672886E+02
 N19      -6.56833945767361E-16 -1.07269123836305E+01
 N20      -6.56833945767365E-16 -1.07269123836306E+01
 N23      -6.37347712570313E-15 -1.04086780451973E+02
 N24      -3.23092728125998E-15 -5.27650467630254E+01
 
   
   !----------------------------------------------------------------------------------------------------------------!
   ! <EXCEPTION> <MATRICE0_12>                                                                                      !
   !                                                                                                                !
   !  Une des charges renseignées pour l'assemblage des vecteurs est déjà présente dans le mot-clé                  !
   !  CHARGE définissant les conditions de Dirichlet. Il est interdit de renseigner plus d'une fois la même charge. !
   !----------------------------------------------------------------------------------------------------------------!
   

 --------------------------------------------------------------------------------
 ASTER 11.03.00 CONCEPT Pr_11 CALCULE LE 27/06/2016 A 14:58:12 DE TYPE ACOU_HARMO

                    ENTITES TOPOLOGIQUES SELECTIONNEES 
 GROUP_MA : ENTREE SORTIE                                                        


 ======>

 ------>
 CHAMP AUX NOEUDS DE NOM SYMBOLIQUE  INTE_NOEU                                   
 NUMERO D'ORDRE: 1 FREQ:   1.52000000000000E+02                                  
 NOEUD        INTX_R       INTX_I       INTY_R       INTY_I       INTZ_R       INTZ_I  
 N1        2.00296714216273E-32  5.33498020391811E-01 -2.15704153771370E-32 -2.42717694088787E+00 -1.23259516440783E-32 -5.33498020391811E-01
 N2        3.08148791101958E-33 -1.43257186309626E-01  0.00000000000000E+00  3.65846153436665E-02 -4.62223186652937E-33 -1.43257186309626E-01
 N3        3.69778549322349E-32  1.56613623245576E+00  0.00000000000000E+00  1.48202647081309E+01  1.23259516440783E-31 -1.56613623245575E+00
 N4        1.56000325495366E-32 -2.57674379508078E-01 -4.39112027320290E-32  2.05753045025628E+00  2.02222644160660E-32 -2.57674379508079E-01
 N5        1.54074395550979E-33  1.43257186309626E-01  6.54816181091660E-33  3.65846153436668E-02  3.08148791101958E-33  1.43257186309625E-01
 N6        1.00148357108136E-32 -5.33498020391810E-01 -1.54074395550979E-32 -2.42717694088787E+00  1.00148357108136E-32  5.33498020391810E-01
 N7       -2.58074612547890E-32  2.57674379508077E-01  4.62223186652937E-33  2.05753045025628E+00  1.16518761635428E-32  2.57674379508080E-01
 N8        2.71170936169723E-31 -1.56613623245575E+00 -1.97215226305253E-31  1.48202647081309E+01 -2.09541177949331E-31  1.56613623245575E+00
 N9       -3.69778549322349E-32  1.22247917253153E+00 -9.86076131526265E-32  1.18291939514057E+01 -7.39557098644699E-32 -1.37264213940144E+00
 N11      -3.85185988877447E-34  1.92441296624410E-02 -3.85185988877447E-34 -2.16120443852627E-02 -2.31111593326468E-33 -3.94400051400097E-02
 N13       1.97215226305253E-31 -1.22247917253152E+00  0.00000000000000E+00  1.18291939514057E+01  0.00000000000000E+00  1.37264213940144E+00
 N15       1.73333694994851E-33 -1.92441296624410E-02 -1.34815096107107E-33 -2.16120443852627E-02  7.70371977754894E-34  3.94400051400096E-02
 N17      -1.23259516440783E-32 -1.37264213940144E+00  0.00000000000000E+00  1.18291939514057E+01  1.23259516440783E-32  1.22247917253154E+00
 N18       3.69778549322349E-32  1.37264213940144E+00  1.97215226305253E-31  1.18291939514057E+01  3.69778549322349E-32 -1.22247917253153E+00
 N19       1.54074395550979E-33 -3.94400051400094E-02  5.77778983316171E-34 -2.16120443852625E-02 -5.77778983316171E-34  1.92441296624408E-02
 N20      -2.69630192214213E-33  3.94400051400096E-02 -1.92592994438724E-34 -2.16120443852627E-02  1.34815096107107E-33 -1.92441296624410E-02
 N23      -1.96604253983694E-32 -5.92118946466750E-16 -1.02716263700653E-31  2.86455110219628E+00  1.77376629439901E-32  5.92118946466750E-16
 N24      -1.13115389969809E-33 -5.55111512312578E-17 -3.08148791101958E-33 -4.13088679293334E-01 -3.76760132137488E-35 -1.85037170770859E-17
 

 ------>
 CHAMP AUX NOEUDS DE NOM SYMBOLIQUE  PRAC_NOEU                                   
 NUMERO D'ORDRE: 1 FREQ:   1.52000000000000E+02                                  
 NOEUD        PRES_R       PRES_I  
 N1       -7.38739177730705E-15 -1.20645263311029E+02
 N2       -1.44270805216980E-15 -2.35612105167673E+01
 N3       -1.42116704390475E-14 -2.32094191548816E+02
 N4       -5.45033298609329E-15 -8.90106925505056E+01
 N5       -1.44270805216980E-15 -2.35612105167672E+01
 N6       -7.38739177730705E-15 -1.20645263311029E+02
 N7       -5.45033298609329E-15 -8.90106925505056E+01
 N8       -1.42116704390475E-14 -2.32094191548816E+02
 N9       -1.45863098809823E-14 -2.38212517946200E+02
 N11      -6.17684531339855E-16 -1.00875539260775E+01
 N13      -1.45863098809823E-14 -2.38212517946200E+02
 N15      -6.17684531339854E-16 -1.00875539260775E+01
 N17      -1.45863098809823E-14 -2.38212517946201E+02
 N18      -1.45863098809823E-14 -2.38212517946200E+02
 N19      -6.17684531339850E-16 -1.00875539260774E+01
 N20      -6.17684531339854E-16 -1.00875539260775E+01
 N23      -5.92956511365196E-15 -9.68371471314073E+01
 N24      -2.96474249207671E-15 -4.84179192586938E+01
 
   
   !----------------------------------------------------------------------------------------------------------------!
   ! <EXCEPTION> <MATRICE0_12>                                                                                      !
   !                                                                                                                !
   !  Une des charges renseignées pour l'assemblage des vecteurs est déjà présente dans le mot-clé                  !
   !  CHARGE définissant les conditions de Dirichlet. Il est interdit de renseigner plus d'une fois la même charge. !
   !----------------------------------------------------------------------------------------------------------------!
   

 --------------------------------------------------------------------------------
 ASTER 11.03.00 CONCEPT Pr_12 CALCULE LE 27/06/2016 A 14:58:12 DE TYPE ACOU_HARMO

                    ENTITES TOPOLOGIQUES SELECTIONNEES 
 GROUP_MA : ENTREE SORTIE                                                        


 ======>

 ------>
 CHAMP AUX NOEUDS DE NOM SYMBOLIQUE  INTE_NOEU                                   
 NUMERO D'ORDRE: 1 FREQ:   1.64000000000000E+02                                  
 NOEUD        INTX_R       INTX_I       INTY_R       INTY_I       INTZ_R       INTZ_I  
 N1       -4.62223186652937E-33  4.00988093117479E-01  0.00000000000000E+00 -1.85145668210864E+00  1.00148357108136E-32 -4.00988093117479E-01
 N2       -5.39260384428426E-33 -1.02687181649332E-01  5.20001084984554E-33  2.53768883218934E-02 -2.31111593326468E-33 -1.02687181649332E-01
 N3        1.84889274661175E-31  1.17301925591526E+00  2.95822839457879E-31  1.13558333546637E+01 -1.23259516440783E-31 -1.17301925591525E+00
 N4        6.54816181091660E-33 -2.02330322240308E-01  3.08148791101958E-33  1.63489676656687E+00  4.33334237487128E-33 -2.02330322240309E-01
 N5        7.70371977754894E-34  1.02687181649331E-01  1.73333694994851E-33  2.53768883218936E-02  0.00000000000000E+00  1.02687181649331E-01
 N6        1.81037414772400E-32 -4.00988093117478E-01 -3.08148791101958E-33 -1.85145668210864E+00  8.85927774418128E-33  4.00988093117478E-01
 N7       -1.06889111913492E-32  2.02330322240307E-01  2.08000433993821E-32  1.63489676656687E+00  2.79259841936149E-33  2.02330322240310E-01
 N8       -4.93038065763132E-32 -1.17301925591525E+00 -9.86076131526265E-32  1.13558333546637E+01  4.93038065763132E-32  1.17301925591525E+00
 N9       -3.69778549322349E-32  9.28839574804382E-01  0.00000000000000E+00  9.05269422958203E+00  1.23259516440783E-32 -1.04485915939560E+00
 N11      -5.77778983316171E-34  1.42198767796651E-02  9.62964972193618E-34 -1.85231913895712E-02  1.15555796663234E-33 -3.12122306735279E-02
 N13       6.16297582203915E-32 -9.28839574804375E-01  9.86076131526265E-32  9.05269422958203E+00 -1.23259516440783E-32  1.04485915939560E+00
 N15       3.85185988877447E-34 -1.42198767796651E-02  1.15555796663234E-33 -1.85231913895712E-02 -3.85185988877447E-34  3.12122306735279E-02
 N17       2.46519032881566E-32 -1.04485915939560E+00  0.00000000000000E+00  9.05269422958206E+00 -2.46519032881566E-32  9.28839574804389E-01
 N18      -2.46519032881566E-32  1.04485915939560E+00  0.00000000000000E+00  9.05269422958204E+00  0.00000000000000E+00 -9.28839574804383E-01
 N19       0.00000000000000E+00 -3.12122306735277E-02 -3.85185988877447E-34 -1.85231913895710E-02 -1.92592994438724E-34  1.42198767796649E-02
 N20       3.08148791101958E-33  3.12122306735278E-02  0.00000000000000E+00 -1.85231913895712E-02 -3.85185988877447E-34 -1.42198767796651E-02
 N23       5.01647107500854E-33 -5.92118946466750E-16  4.10865054802610E-33  2.26395102573644E+00 -6.46774784564878E-33  3.70074341541719E-16
 N24       2.29321008366133E-33  0.00000000000000E+00 -5.13581318503263E-33 -3.30412690079927E-01  3.92531801039010E-33  1.85037170770859E-17
 

 ------>
 CHAMP AUX NOEUDS DE NOM SYMBOLIQUE  PRAC_NOEU                                   
 NUMERO D'ORDRE: 1 FREQ:   1.64000000000000E+02                                  
 NOEUD        PRES_R       PRES_I  
 N1       -6.67085990486950E-15 -1.08943409798058E+02
 N2       -1.26592649425114E-15 -2.06741485811668E+01
 N3       -1.29939688658943E-14 -2.12207615696889E+02
 N4       -5.09408845613290E-15 -8.31927778634559E+01
 N5       -1.26592649425113E-15 -2.06741485811667E+01
 N6       -6.67085990486950E-15 -1.08943409798058E+02
 N7       -5.09408845613290E-15 -8.31927778634559E+01
 N8       -1.29939688658943E-14 -2.12207615696889E+02
 N9       -1.32860540153753E-14 -2.16977728184577E+02
 N11      -5.80087138616605E-16 -9.47354190645800E+00
 N13      -1.32860540153753E-14 -2.16977728184577E+02
 N15      -5.80087138616604E-16 -9.47354190645799E+00
 N17      -1.32860540153753E-14 -2.16977728184577E+02
 N18      -1.32860540153753E-14 -2.16977728184577E+02
 N19      -5.80087138616602E-16 -9.47354190645795E+00
 N20      -5.80087138616605E-16 -9.47354190645799E+00
 N23      -5.53268385687141E-15 -9.03555843321271E+01
 N24      -2.73718534541496E-15 -4.47016290300305E+01
 
   
   !----------------------------------------------------------------------------------------------------------------!
   ! <EXCEPTION> <MATRICE0_12>                                                                                      !
   !                                                                                                                !
   !  Une des charges renseignées pour l'assemblage des vecteurs est déjà présente dans le mot-clé                  !
   !  CHARGE définissant les conditions de Dirichlet. Il est interdit de renseigner plus d'une fois la même charge. !
   !----------------------------------------------------------------------------------------------------------------!
   

 --------------------------------------------------------------------------------
 ASTER 11.03.00 CONCEPT Pr_13 CALCULE LE 27/06/2016 A 14:58:12 DE TYPE ACOU_HARMO

                    ENTITES TOPOLOGIQUES SELECTIONNEES 
 GROUP_MA : ENTREE SORTIE                                                        


 ======>

 ------>
 CHAMP AUX NOEUDS DE NOM SYMBOLIQUE  INTE_NOEU                                   
 NUMERO D'ORDRE: 1 FREQ:   1.76000000000000E+02                                  
 NOEUD        INTX_R       INTX_I       INTY_R       INTY_I       INTZ_R       INTZ_I  
 N1       -7.70371977754894E-34  3.10146077842016E-01  4.62223186652937E-33 -1.44845979917437E+00 -3.85185988877447E-34 -3.10146077842016E-01
 N2       -7.70371977754894E-34 -7.65499876125639E-02  1.73333694994851E-33  1.83538430593400E-02 -7.70371977754894E-34 -7.65499876125641E-02
 N3       -3.69778549322349E-32  9.04702965271878E-01  0.00000000000000E+00  8.91699528924750E+00  8.01186856865090E-32 -9.04702965271870E-01
 N4        1.95481889355304E-32 -1.61824176209662E-01  1.54074395550979E-33  1.31989114947469E+00 -6.54816181091660E-33 -1.61824176209663E-01
 N5       -1.54074395550979E-33  7.65499876125636E-02 -1.15555796663234E-33  1.83538430593402E-02 -2.31111593326468E-33  7.65499876125635E-02
 N6       -8.47409175530384E-33 -3.10146077842016E-01 -1.54074395550979E-33 -1.44845979917437E+00  5.39260384428426E-33  3.10146077842016E-01
 N7       -4.14074938043256E-33  1.61824176209662E-01 -3.85185988877447E-33  1.31989114947470E+00 -6.74075480535533E-33  1.61824176209663E-01
 N8       -1.10933564796705E-31 -9.04702965271872E-01  0.00000000000000E+00  8.91699528924750E+00  4.31408307542741E-32  9.04702965271871E-01
 N9       -3.08148791101958E-32  7.24615149019742E-01  0.00000000000000E+00  7.10218430504828E+00  1.84889274661175E-32 -8.16259499591556E-01
 N11       1.92592994438724E-34  1.08166359398801E-02  3.85185988877447E-34 -1.57774708832349E-02  3.85185988877447E-34 -2.50913487597842E-02
 N13       1.84889274661175E-32 -7.24615149019738E-01  4.93038065763132E-32  7.10218430504827E+00  0.00000000000000E+00  8.16259499591555E-01
 N15       2.88889491658085E-34 -1.08166359398801E-02  0.00000000000000E+00 -1.57774708832349E-02  3.85185988877447E-34  2.50913487597841E-02
 N17       0.00000000000000E+00 -8.16259499591556E-01  0.00000000000000E+00  7.10218430504829E+00  3.69778549322349E-32  7.24615149019747E-01
 N18      -2.46519032881566E-32  8.16259499591556E-01  0.00000000000000E+00  7.10218430504828E+00 -3.69778549322349E-32 -7.24615149019743E-01
 N19      -1.92592994438724E-34 -2.50913487597842E-02  1.92592994438724E-34 -1.57774708832349E-02  1.92592994438724E-34  1.08166359398801E-02
 N20      -7.70371977754894E-34  2.50913487597842E-02  1.92592994438724E-34 -1.57774708832350E-02  7.70371977754894E-34 -1.08166359398802E-02
 N23       6.36045332158464E-33 -2.96059473233375E-16  2.87605538361827E-32  1.82017616662176E+00 -6.89381922773549E-33  2.96059473233375E-16
 N24      -2.00483841766256E-34 -9.25185853854297E-18 -1.54074395550979E-33 -2.67858247735993E-01 -2.99095596107530E-33 -1.85037170770859E-17
 

 ------>
 CHAMP AUX NOEUDS DE NOM SYMBOLIQUE  PRAC_NOEU                                   
 NUMERO D'ORDRE: 1 FREQ:   1.76000000000000E+02                                  
 NOEUD        PRES_R       PRES_I  
 N1       -6.09057389951969E-15 -9.94666201513805E+01
 N2       -1.13038007125873E-15 -1.84605075038083E+01
 N3       -1.19797830926086E-14 -1.95644705084754E+02
 N4       -4.77535700262436E-15 -7.79874982068161E+01
 N5       -1.13038007125872E-15 -1.84605075038082E+01
 N6       -6.09057389951969E-15 -9.94666201513805E+01
 N7       -4.77535700262436E-15 -7.79874982068161E+01
 N8       -1.19797830926086E-14 -1.95644705084754E+02
 N9       -1.22139589086679E-14 -1.99469086387548E+02
 N11      -5.45321920611144E-16 -8.90578281004479E+00
 N13      -1.22139589086679E-14 -1.99469086387548E+02
 N15      -5.45321920611142E-16 -8.90578281004477E+00
 N17      -1.22139589086679E-14 -1.99469086387548E+02
 N18      -1.22139589086679E-14 -1.99469086387548E+02
 N19      -5.45321920611143E-16 -8.90578281004477E+00
 N20      -5.45321920611145E-16 -8.90578281004482E+00
 N23      -5.17979024388503E-15 -8.45923942722326E+01
 N24      -2.54133137378437E-15 -4.15030909410574E+01
 
   
   !----------------------------------------------------------------------------------------------------------------!
   ! <EXCEPTION> <MATRICE0_12>                                                                                      !
   !                                                                                                                !
   !  Une des charges renseignées pour l'assemblage des vecteurs est déjà présente dans le mot-clé                  !
   !  CHARGE définissant les conditions de Dirichlet. Il est interdit de renseigner plus d'une fois la même charge. !
   !----------------------------------------------------------------------------------------------------------------!
   

 --------------------------------------------------------------------------------
 ASTER 11.03.00 CONCEPT Pr_14 CALCULE LE 27/06/2016 A 14:58:12 DE TYPE ACOU_HARMO

                    ENTITES TOPOLOGIQUES SELECTIONNEES 
 GROUP_MA : ENTREE SORTIE                                                        


 ======>

 ------>
 CHAMP AUX NOEUDS DE NOM SYMBOLIQUE  INTE_NOEU                                   
 NUMERO D'ORDRE: 1 FREQ:   1.88000000000000E+02                                  
 NOEUD        INTX_R       INTX_I       INTY_R       INTY_I       INTZ_R       INTZ_I  
 N1       -2.31111593326468E-33  2.45476950267849E-01  2.31111593326468E-33 -1.15684055120235E+00 -3.46667389989702E-33 -2.45476950267849E-01
 N2       -7.70371977754894E-34 -5.88396091508953E-02  1.73333694994851E-33  1.37276523632681E-02  0.00000000000000E+00 -5.88396091508954E-02
 N3       -6.16297582203915E-32  7.14397465573877E-01  4.93038065763132E-32  7.14363938218664E+00  3.69778549322349E-32 -7.14397465573872E-01
 N4       -4.33334237487128E-33 -1.31497394537542E-01 -9.62964972193618E-33  1.08063411519059E+00  1.24222481412977E-32 -1.31497394537543E-01
 N5        1.54074395550979E-33  5.88396091508952E-02  1.82963344716787E-33  1.37276523632682E-02  1.54074395550979E-33  5.88396091508951E-02
 N6        9.24446373305873E-33 -2.45476950267849E-01  5.39260384428426E-33 -1.15684055120235E+00 -1.00148357108136E-32  2.45476950267849E-01
 N7       -5.97038282760043E-33  1.31497394537542E-01  8.08890576642639E-33  1.08063411519059E+00 -5.29630734706490E-33  1.31497394537543E-01
 N8        1.23259516440783E-32 -7.14397465573873E-01  9.86076131526265E-32  7.14363938218664E+00  3.08148791101958E-32  7.14397465573873E-01
 N9       -6.16297582203915E-33  5.77518141444297E-01  4.93038065763132E-32  5.68601609451707E+00  1.23259516440783E-32 -6.51262276141598E-01
 N11      -3.85185988877447E-34  8.42989075712495E-03 -9.62964972193618E-35 -1.34394494085693E-02 -1.92592994438724E-34 -2.04600962902060E-02
 N13       1.84889274661175E-32 -5.77518141444294E-01 -4.93038065763132E-32  5.68601609451706E+00 -1.23259516440783E-32  6.51262276141598E-01
 N15      -9.62964972193618E-35 -8.42989075712492E-03  0.00000000000000E+00 -1.34394494085693E-02  0.00000000000000E+00  2.04600962902059E-02
 N17       6.16297582203915E-33 -6.51262276141599E-01  0.00000000000000E+00  5.68601609451707E+00 -6.16297582203915E-33  5.77518141444300E-01
 N18      -6.16297582203915E-33  6.51262276141598E-01  4.93038065763132E-32  5.68601609451706E+00  3.69778549322349E-32 -5.77518141444296E-01
 N19      -1.92592994438724E-34 -2.04600962902059E-02 -1.92592994438724E-34 -1.34394494085692E-02 -9.62964972193618E-35  8.42989075712488E-03
 N20       9.62964972193618E-34  2.04600962902060E-02 -5.77778983316171E-34 -1.34394494085694E-02  3.85185988877447E-34 -8.42989075712496E-03
 N23      -1.49924229797166E-33 -1.85037170770859E-16 -3.28692043842088E-32  1.48536094674693E+00  3.84732229579329E-33  1.48029736616688E-16
 N24      -3.17783239327545E-34 -2.77555756156289E-17  4.10865054802610E-33 -2.19896203825684E-01 -5.60051023460325E-34 -9.25185853854297E-18
 

 ------>
 CHAMP AUX NOEUDS DE NOM SYMBOLIQUE  PRAC_NOEU                                   
 NUMERO D'ORDRE: 1 FREQ:   1.88000000000000E+02                                  
 NOEUD        PRES_R       PRES_I  
 N1       -5.60966467989403E-15 -9.16127765785156E+01
 N2       -1.02291108506072E-15 -1.67054057671634E+01
 N3       -1.11200681641635E-14 -1.81604494812802E+02
 N4       -4.49052166509966E-15 -7.33357841334520E+01
 N5       -1.02291108506072E-15 -1.67054057671633E+01
 N6       -5.60966467989403E-15 -9.16127765785155E+01
 N7       -4.49052166509966E-15 -7.33357841334519E+01
 N8       -1.11200681641635E-14 -1.81604494812802E+02
 N9       -1.13121428138706E-14 -1.84741311890849E+02
 N11      -5.13659164440758E-16 -8.38869076044435E+00
 N13      -1.13121428138705E-14 -1.84741311890849E+02
 N15      -5.13659164440757E-16 -8.38869076044434E+00
 N17      -1.13121428138706E-14 -1.84741311890849E+02
 N18      -1.13121428138706E-14 -1.84741311890849E+02
 N19      -5.13659164440756E-16 -8.38869076044432E+00
 N20      -5.13659164440759E-16 -8.38869076044436E+00
 N23      -4.86586212924063E-15 -7.94655590922776E+01
 N24      -2.37137953048678E-15 -3.87275667096476E+01
 
   
   !----------------------------------------------------------------------------------------------------------------!
   ! <EXCEPTION> <MATRICE0_12>                                                                                      !
   !                                                                                                                !
   !  Une des charges renseignées pour l'assemblage des vecteurs est déjà présente dans le mot-clé                  !
   !  CHARGE définissant les conditions de Dirichlet. Il est interdit de renseigner plus d'une fois la même charge. !
   !----------------------------------------------------------------------------------------------------------------!
   

 --------------------------------------------------------------------------------
 ASTER 11.03.00 CONCEPT Pr_15 CALCULE LE 27/06/2016 A 14:58:12 DE TYPE ACOU_HARMO

                    ENTITES TOPOLOGIQUES SELECTIONNEES 
 GROUP_MA : ENTREE SORTIE                                                        
[...]
 * ASSEMBLAGE               :       0.02 :       0.00 :       0.02 :       0.02 *
 * DYNA_VIBRA               :       0.00 :       0.00 :       0.00 :       0.00 *
 * CALC_CHAMP               :       0.01 :       0.00 :       0.01 :       0.01 *
 * IMPR_RESU                :       0.01 :       0.00 :       0.01 :       0.01 *
 * DETRUIRE                 :       0.01 :       0.00 :       0.01 :       0.01 *
 * ASSEMBLAGE               :       0.02 :       0.00 :       0.02 :       0.02 *
 * DYNA_VIBRA               :       0.01 :       0.00 :       0.01 :       0.01 *
 * CALC_CHAMP               :       0.01 :       0.00 :       0.01 :       0.00 *
 * IMPR_RESU                :       0.00 :       0.00 :       0.00 :       0.01 *
 * DETRUIRE                 :       0.02 :       0.00 :       0.02 :       0.01 *
 * ASSEMBLAGE               :       0.01 :       0.00 :       0.01 :       0.02 *
 * DYNA_VIBRA               :       0.01 :       0.00 :       0.01 :       0.01 *
 * CALC_CHAMP               :       0.01 :       0.00 :       0.01 :       0.01 *
 * IMPR_RESU                :       0.00 :       0.00 :       0.00 :       0.00 *
 * DETRUIRE                 :       0.01 :       0.00 :       0.01 :       0.02 *
 * ASSEMBLAGE               :       0.02 :       0.01 :       0.03 :       0.02 *
 * DYNA_VIBRA               :       0.00 :       0.00 :       0.00 :       0.00 *
 * CALC_CHAMP               :       0.01 :       0.00 :       0.01 :       0.01 *
 * IMPR_RESU                :       0.01 :       0.00 :       0.01 :       0.01 *
 * DETRUIRE                 :       0.01 :       0.00 :       0.01 :       0.01 *
 * ASSEMBLAGE               :       0.02 :       0.00 :       0.02 :       0.02 *
 * DYNA_VIBRA               :       0.01 :       0.00 :       0.01 :       0.00 *
 * CALC_CHAMP               :       0.01 :       0.00 :       0.01 :       0.00 *
 * IMPR_RESU                :       0.00 :       0.00 :       0.00 :       0.01 *
 * DETRUIRE                 :       0.02 :       0.00 :       0.02 :       0.01 *
 * ASSEMBLAGE               :       0.01 :       0.00 :       0.01 :       0.02 *
 * DYNA_VIBRA               :       0.01 :       0.00 :       0.01 :       0.01 *
 * CALC_CHAMP               :       0.01 :       0.00 :       0.01 :       0.01 *
 * IMPR_RESU                :       0.00 :       0.00 :       0.00 :       0.00 *
 * DETRUIRE                 :       0.02 :       0.00 :       0.02 :       0.02 *
 * ASSEMBLAGE               :       0.01 :       0.00 :       0.01 :       0.01 *
 * DYNA_VIBRA               :       0.01 :       0.00 :       0.01 :       0.00 *
 * CALC_CHAMP               :       0.01 :       0.00 :       0.01 :       0.01 *
 * IMPR_RESU                :       0.00 :       0.00 :       0.00 :       0.01 *
 * DETRUIRE                 :       0.02 :       0.00 :       0.02 :       0.01 *
 * ASSEMBLAGE               :       0.02 :       0.00 :       0.02 :       0.02 *
 * DYNA_VIBRA               :       0.00 :       0.00 :       0.00 :       0.01 *
 * CALC_CHAMP               :       0.01 :       0.00 :       0.01 :       0.00 *
 * IMPR_RESU                :       0.01 :       0.00 :       0.01 :       0.01 *
 * DETRUIRE                 :       0.01 :       0.00 :       0.01 :       0.01 *
 * ASSEMBLAGE               :       0.02 :       0.00 :       0.02 :       0.02 *
 * DYNA_VIBRA               :       0.01 :       0.00 :       0.01 :       0.01 *
 * CALC_CHAMP               :       0.00 :       0.01 :       0.01 :       0.01 *
 * IMPR_RESU                :       0.01 :       0.00 :       0.01 :       0.00 *
 * DETRUIRE                 :       0.01 :       0.00 :       0.01 :       0.02 *
 * ASSEMBLAGE               :       0.02 :       0.00 :       0.02 :       0.02 *
 * DYNA_VIBRA               :       0.01 :       0.00 :       0.01 :       0.00 *
 * CALC_CHAMP               :       0.01 :       0.00 :       0.01 :       0.01 *
 * IMPR_RESU                :       0.00 :       0.00 :       0.00 :       0.01 *
 * DETRUIRE                 :       0.02 :       0.00 :       0.02 :       0.01 *
 * ASSEMBLAGE               :       0.02 :       0.00 :       0.02 :       0.02 *
 * DYNA_VIBRA               :       0.00 :       0.00 :       0.00 :       0.01 *
 * CALC_CHAMP               :       0.01 :       0.00 :       0.01 :       0.01 *
 * IMPR_RESU                :       0.01 :       0.00 :       0.01 :       0.00 *
 * DETRUIRE                 :       0.01 :       0.00 :       0.01 :       0.02 *
 * ASSEMBLAGE               :       0.02 :       0.00 :       0.02 :       0.01 *
 * DYNA_VIBRA               :       0.01 :       0.00 :       0.01 :       0.01 *
 * CALC_CHAMP               :       0.01 :       0.00 :       0.01 :       0.01 *
 * IMPR_RESU                :       0.00 :       0.00 :       0.00 :       0.01 *
 * DETRUIRE                 :       0.01 :       0.00 :       0.01 :       0.01 *
 * ASSEMBLAGE               :       0.01 :       0.00 :       0.01 :       0.02 *
 * DYNA_VIBRA               :       0.01 :       0.00 :       0.01 :       0.00 *
 * CALC_CHAMP               :       0.01 :       0.00 :       0.01 :       0.02 *
 * IMPR_RESU                :       0.00 :       0.00 :       0.00 :       0.00 *
 * DETRUIRE                 :       0.01 :       0.00 :       0.01 :       0.02 *
 * ASSEMBLAGE               :       0.02 :       0.00 :       0.02 :       0.01 *
 * DYNA_VIBRA               :       0.01 :       0.00 :       0.01 :       0.01 *
 * CALC_CHAMP               :       0.01 :       0.00 :       0.01 :       0.01 *
 * IMPR_RESU                :       0.00 :       0.00 :       0.00 :       0.00 *
 * DETRUIRE                 :       0.02 :       0.00 :       0.02 :       0.02 *
 * ASSEMBLAGE               :       0.02 :       0.00 :       0.02 :       0.01 *
 * DYNA_VIBRA               :       0.00 :       0.00 :       0.00 :       0.00 *
 * CALC_CHAMP               :       0.01 :       0.00 :       0.01 :       0.01 *
 * IMPR_RESU                :       0.01 :       0.00 :       0.01 :       0.01 *
 * DETRUIRE                 :       0.01 :       0.00 :       0.01 :       0.01 *
 * ASSEMBLAGE               :       0.02 :       0.00 :       0.02 :       0.02 *
 * DYNA_VIBRA               :       0.01 :       0.00 :       0.01 :       0.01 *
 * CALC_CHAMP               :       0.01 :       0.00 :       0.01 :       0.01 *
 * IMPR_RESU                :       0.00 :       0.00 :       0.00 :       0.00 *
 * DETRUIRE                 :       0.02 :       0.00 :       0.02 :       0.02 *
 * ASSEMBLAGE               :       0.01 :       0.00 :       0.01 :       0.01 *
 * DYNA_VIBRA               :       0.01 :       0.00 :       0.01 :       0.00 *
 * CALC_CHAMP               :       0.01 :       0.00 :       0.01 :       0.01 *
 * IMPR_RESU                :       0.00 :       0.00 :       0.00 :       0.01 *
 * DETRUIRE                 :       0.02 :       0.00 :       0.02 :       0.01 *
 * ASSEMBLAGE               :       0.01 :       0.00 :       0.01 :       0.02 *
 * DYNA_VIBRA               :       0.01 :       0.00 :       0.01 :       0.00 *
 * CALC_CHAMP               :       0.01 :       0.00 :       0.01 :       0.01 *
 * IMPR_RESU                :       0.00 :       0.00 :       0.00 :       0.01 *
 * DETRUIRE                 :       0.02 :       0.00 :       0.02 :       0.01 *
 * ASSEMBLAGE               :       0.02 :       0.00 :       0.02 :       0.02 *
 * DYNA_VIBRA               :       0.00 :       0.00 :       0.00 :       0.00 *
 * CALC_CHAMP               :       0.01 :       0.00 :       0.01 :       0.01 *
 * IMPR_RESU                :       0.01 :       0.00 :       0.01 :       0.00 *
 * DETRUIRE                 :       0.01 :       0.00 :       0.01 :       0.02 *
 * ASSEMBLAGE               :       0.02 :       0.00 :       0.02 :       0.01 *
 * DYNA_VIBRA               :       0.00 :       0.00 :       0.00 :       0.01 *
 * CALC_CHAMP               :       0.01 :       0.00 :       0.01 :       0.01 *
 * IMPR_RESU                :       0.01 :       0.00 :       0.01 :       0.00 *
 * DETRUIRE                 :       0.01 :       0.00 :       0.01 :       0.02 *
 * ASSEMBLAGE               :       0.02 :       0.00 :       0.02 :       0.01 *
 * DYNA_VIBRA               :       0.01 :       0.00 :       0.01 :       0.01 *
 * CALC_CHAMP               :       0.01 :       0.00 :       0.01 :       0.01 *
 * IMPR_RESU                :       0.00 :       0.00 :       0.00 :       0.00 *
 * DETRUIRE                 :       0.02 :       0.00 :       0.02 :       0.02 *
 * ASSEMBLAGE               :       0.01 :       0.00 :       0.01 :       0.02 *
 * DYNA_VIBRA               :       0.01 :       0.00 :       0.01 :       0.00 *
 * CALC_CHAMP               :       0.01 :       0.00 :       0.01 :       0.01 *
 * IMPR_RESU                :       0.00 :       0.00 :       0.00 :       0.01 *
 * DETRUIRE                 :       0.02 :       0.00 :       0.02 :       0.01 *
 * ASSEMBLAGE               :       0.02 :       0.00 :       0.02 :       0.02 *
 * DYNA_VIBRA               :       0.00 :       0.00 :       0.00 :       0.01 *
 * CALC_CHAMP               :       0.01 :       0.00 :       0.01 :       0.01 *
 * IMPR_RESU                :       0.01 :       0.00 :       0.01 :       0.00 *
 * DETRUIRE                 :       0.01 :       0.00 :       0.01 :       0.01 *
 * ASSEMBLAGE               :       0.02 :       0.00 :       0.02 :       0.02 *
 * DYNA_VIBRA               :       0.00 :       0.00 :       0.00 :       0.01 *
 * CALC_CHAMP               :       0.01 :       0.01 :       0.02 :       0.01 *
 * IMPR_RESU                :       0.01 :       0.00 :       0.01 :       0.00 *
 * DETRUIRE                 :       0.01 :       0.00 :       0.01 :       0.02 *
 * ASSEMBLAGE               :       0.01 :       0.00 :       0.01 :       0.02 *
 * DYNA_VIBRA               :       0.01 :       0.00 :       0.01 :       0.00 *
 * CALC_CHAMP               :       0.01 :       0.00 :       0.01 :       0.01 *
 * IMPR_RESU                :       0.00 :       0.00 :       0.00 :       0.01 *
 * DETRUIRE                 :       0.02 :       0.00 :       0.02 :       0.01 *
 * ASSEMBLAGE               :       0.02 :       0.00 :       0.02 :       0.02 *
 * DYNA_VIBRA               :       0.00 :       0.00 :       0.00 :       0.01 *
 * CALC_CHAMP               :       0.01 :       0.00 :       0.01 :       0.00 *
 * IMPR_RESU                :       0.01 :       0.00 :       0.01 :       0.01 *
 * DETRUIRE                 :       0.01 :       0.00 :       0.01 :       0.01 *
 * ASSEMBLAGE               :       0.02 :       0.00 :       0.02 :       0.02 *
 * DYNA_VIBRA               :       0.01 :       0.00 :       0.01 :       0.01 *
 * CALC_CHAMP               :       0.01 :       0.00 :       0.01 :       0.01 *
 * IMPR_RESU                :       0.00 :       0.00 :       0.00 :       0.00 *
 * DETRUIRE                 :       0.01 :       0.00 :       0.01 :       0.02 *
 * ASSEMBLAGE               :       0.01 :       0.00 :       0.01 :       0.02 *
 * DYNA_VIBRA               :       0.01 :       0.00 :       0.01 :       0.00 *
 * CALC_CHAMP               :       0.01 :       0.00 :       0.01 :       0.02 *
 * IMPR_RESU                :       0.01 :       0.00 :       0.01 :       0.00 *
 * DETRUIRE                 :       0.01 :       0.00 :       0.01 :       0.01 *
 * ASSEMBLAGE               :       0.02 :       0.00 :       0.02 :       0.02 *
 * DYNA_VIBRA               :       0.00 :       0.00 :       0.00 :       0.01 *
 * CALC_CHAMP               :       0.01 :       0.00 :       0.01 :       0.01 *
 * IMPR_RESU                :       0.01 :       0.00 :       0.01 :       0.00 *
 * DETRUIRE                 :       0.01 :       0.00 :       0.01 :       0.02 *
 * ASSEMBLAGE               :       0.02 :       0.00 :       0.02 :       0.01 *
 * DYNA_VIBRA               :       0.01 :       0.00 :       0.01 :       0.01 *
 * CALC_CHAMP               :       0.01 :       0.00 :       0.01 :       0.01 *
 * IMPR_RESU                :       0.00 :       0.00 :       0.00 :       0.00 *
 * DETRUIRE                 :       0.02 :       0.00 :       0.02 :       0.02 *
 * ASSEMBLAGE               :       0.01 :       0.00 :       0.01 :       0.02 *
 * DYNA_VIBRA               :       0.01 :       0.00 :       0.01 :       0.00 *
 * CALC_CHAMP               :       0.01 :       0.00 :       0.01 :       0.02 *
 * IMPR_RESU                :       0.01 :       0.00 :       0.01 :       0.00 *
 * DETRUIRE                 :       0.01 :       0.00 :       0.01 :       0.01 *
 * ASSEMBLAGE               :       0.02 :       0.00 :       0.02 :       0.02 *
 * DYNA_VIBRA               :       0.00 :       0.00 :       0.00 :       0.01 *
 * CALC_CHAMP               :       0.01 :       0.00 :       0.01 :       0.01 *
 * IMPR_RESU                :       0.01 :       0.00 :       0.01 :       0.00 *
 * DETRUIRE                 :       0.01 :       0.00 :       0.01 :       0.02 *
 * ASSEMBLAGE               :       0.02 :       0.00 :       0.02 :       0.01 *
 * DYNA_VIBRA               :       0.01 :       0.00 :       0.01 :       0.01 *
 * CALC_CHAMP               :       0.01 :       0.00 :       0.01 :       0.01 *
 * IMPR_RESU                :       0.00 :       0.00 :       0.00 :       0.00 *
 * DETRUIRE                 :       0.02 :       0.00 :       0.02 :       0.01 *
 * ASSEMBLAGE               :       0.01 :       0.00 :       0.01 :       0.02 *
 * DYNA_VIBRA               :       0.01 :       0.00 :       0.01 :       0.00 *
 * CALC_CHAMP               :       0.01 :       0.00 :       0.01 :       0.02 *
 * IMPR_RESU                :       0.01 :       0.00 :       0.01 :       0.00 *
 * DETRUIRE                 :       0.01 :       0.00 :       0.01 :       0.02 *
 * ASSEMBLAGE               :       0.02 :       0.00 :       0.02 :       0.01 *
 * DYNA_VIBRA               :       0.01 :       0.00 :       0.01 :       0.01 *
 * CALC_CHAMP               :       0.01 :       0.00 :       0.01 :       0.01 *
 * IMPR_RESU                :       0.00 :       0.00 :       0.00 :       0.01 *
 * DETRUIRE                 :       0.02 :       0.00 :       0.02 :       0.01 *
 * ASSEMBLAGE               :       0.01 :       0.00 :       0.01 :       0.02 *
 * DYNA_VIBRA               :       0.01 :       0.00 :       0.01 :       0.00 *
 * CALC_CHAMP               :       0.01 :       0.00 :       0.01 :       0.00 *
 * IMPR_RESU                :       0.00 :       0.00 :       0.00 :       0.01 *
 * DETRUIRE                 :       0.02 :       0.00 :       0.02 :       0.01 *
 * ASSEMBLAGE               :       0.01 :       0.00 :       0.01 :       0.02 *
 * DYNA_VIBRA               :       0.01 :       0.00 :       0.01 :       0.01 *
 * CALC_CHAMP               :       0.01 :       0.00 :       0.01 :       0.01 *
 * IMPR_RESU                :       0.00 :       0.00 :       0.00 :       0.00 *
 * DETRUIRE                 :       0.02 :       0.00 :       0.02 :       0.02 *
 * ASSEMBLAGE               :       0.02 :       0.00 :       0.02 :       0.02 *
 * DYNA_VIBRA               :       0.00 :       0.00 :       0.00 :       0.00 *
 * CALC_CHAMP               :       0.01 :       0.00 :       0.01 :       0.02 *
 * IMPR_RESU                :       0.01 :       0.00 :       0.01 :       0.00 *
 * DETRUIRE                 :       0.01 :       0.00 :       0.01 :       0.01 *
 * ASSEMBLAGE               :       0.02 :       0.00 :       0.02 :       0.01 *
 * DYNA_VIBRA               :       0.01 :       0.00 :       0.01 :       0.01 *
 * CALC_CHAMP               :       0.01 :       0.00 :       0.01 :       0.01 *
 * IMPR_RESU                :       0.00 :       0.00 :       0.00 :       0.00 *
 * DETRUIRE                 :       0.02 :       0.00 :       0.02 :       0.02 *
 * ASSEMBLAGE               :       0.01 :       0.00 :       0.01 :       0.02 *
 * DYNA_VIBRA               :       0.01 :       0.00 :       0.01 :       0.00 *
 * CALC_CHAMP               :       0.01 :       0.00 :       0.01 :       0.01 *
 * IMPR_RESU                :       0.01 :       0.00 :       0.01 :       0.01 *
 * DETRUIRE                 :       0.01 :       0.00 :       0.01 :       0.01 *
 * ASSEMBLAGE               :       0.02 :       0.00 :       0.02 :       0.02 *
 * DYNA_VIBRA               :       0.00 :       0.00 :       0.00 :       0.01 *
 * CALC_CHAMP               :       0.01 :       0.00 :       0.01 :       0.01 *
 * IMPR_RESU                :       0.01 :       0.00 :       0.01 :       0.00 *
 * DETRUIRE                 :       0.01 :       0.00 :       0.01 :       0.02 *
 * ASSEMBLAGE               :       0.02 :       0.00 :       0.02 :       0.02 *
 * DYNA_VIBRA               :       0.01 :       0.00 :       0.01 :       0.00 *
 * CALC_CHAMP               :       0.01 :       0.00 :       0.01 :       0.01 *
 * IMPR_RESU                :       0.00 :       0.00 :       0.00 :       0.01 *
 * DETRUIRE                 :       0.02 :       0.00 :       0.02 :       0.01 *
 * ASSEMBLAGE               :       0.02 :       0.00 :       0.02 :       0.02 *
 * DYNA_VIBRA               :       0.00 :       0.00 :       0.00 :       0.01 *
 * CALC_CHAMP               :       0.01 :       0.00 :       0.01 :       0.00 *
 * IMPR_RESU                :       0.01 :       0.00 :       0.01 :       0.01 *
 * DETRUIRE                 :       0.01 :       0.00 :       0.01 :       0.01 *
 * ASSEMBLAGE               :       0.02 :       0.00 :       0.02 :       0.02 *
 * DYNA_VIBRA               :       0.01 :       0.00 :       0.01 :       0.01 *
 * CALC_CHAMP               :       0.01 :       0.00 :       0.01 :       0.01 *
 * IMPR_RESU                :       0.00 :       0.00 :       0.00 :       0.00 *
 * DETRUIRE                 :       0.02 :       0.00 :       0.02 :       0.02 *
 * ASSEMBLAGE               :       0.01 :       0.00 :       0.01 :       0.02 *
 * DYNA_VIBRA               :       0.00 :       0.00 :       0.00 :       0.00 *
 * CALC_CHAMP               :       0.01 :       0.00 :       0.01 :       0.02 *
 * IMPR_RESU                :       0.01 :       0.00 :       0.01 :       0.00 *
 * DETRUIRE                 :       0.01 :       0.00 :       0.01 :       0.01 *
 * ASSEMBLAGE               :       0.02 :       0.00 :       0.02 :       0.02 *
 * DYNA_VIBRA               :       0.01 :       0.00 :       0.01 :       0.01 *
 * CALC_CHAMP               :       0.01 :       0.00 :       0.01 :       0.01 *
 * IMPR_RESU                :       0.00 :       0.00 :       0.00 :       0.00 *
 * DETRUIRE                 :       0.02 :       0.00 :       0.02 :       0.01 *
 * ASSEMBLAGE               :       0.02 :       0.00 :       0.02 :       0.02 *
 * DYNA_VIBRA               :       0.00 :       0.00 :       0.00 :       0.01 *
 * CALC_CHAMP               :       0.01 :       0.00 :       0.01 :       0.01 *
 * IMPR_RESU                :       0.01 :       0.00 :       0.01 :       0.00 *
 * DETRUIRE                 :       0.01 :       0.00 :       0.01 :       0.01 *
 * ASSEMBLAGE               :       0.02 :       0.00 :       0.02 :       0.02 *
 * DYNA_VIBRA               :       0.01 :       0.00 :       0.01 :       0.01 *
 *  . part Superviseur      :       4.74 :       0.13 :       4.87 :       5.03 *
 *  . part Fortran          :       2.72 :       0.09 :       2.81 :       2.67 *
 * > 500 commandes...       :       9.10 :       0.21 :       9.31 :       9.53 *
 ********************************************************************************
 * TOTAL_JOB                :      16.56 :       0.43 :      16.99 :      17.24 *
 ********************************************************************************

