                                                                                
                                                                                
        -- CODE_ASTER -- VERSION : DÉVELOPPEMENT STABILISÉE (testing) --        
                                                                                
                          Version 11.3.0 du 12/12/2012                          
                         Copyright EDF R&D 1991 - 2016                          
                                                                                
                    Exécution du : Fri Jun 24 15:53:18 2016                     
                   Nom de la machine : liding-Precision-T3600                   
                              Architecture : 64bit                              
                          Type de processeur : x86_64                           
                Système d'exploitation : Linux 3.13.0-85-generic                
                        Langue des messages : en (UTF-8)                        
                                                                                
   
   !------------------------------------------------------------------------------------!
   ! <A> <SUPERVIS2_2>                                                                  !
   !                                                                                    !
   !     Vous utilisez une vieille version de Code_Aster.                               !
   !                                                                                    !
   !     En mettant à jour votre version, vous bénéficierez des dernières améliorations !
   !     apportées au code depuis 15 mois.                                              !
   !     Si vous avez des développements privés, vous risquez d'avoir un travail        !
   !     important de portage si vous ne suivez pas les mises à jour.                   !
   !                                                                                    !
   !                                                                                    !
   ! Ceci est une alarme. Si vous ne comprenez pas le sens de cette                     !
   ! alarme, vous pouvez obtenir des résultats inattendus !                             !
   !------------------------------------------------------------------------------------!
   
                           Parallélisme MPI : inactif                           
                          Parallélisme OpenMP : actif                           
                        Nombre de processus utilisés : 1                        
                      Version de la librairie HDF5 : 1.8.8                      
                      Version de la librairie MED : 3.0.6                       
                          Librairie MUMPS : installée                           
                    Version de la librairie SCOTCH : 5.1.10                     
                 Mémoire limite pour l'exécution : 20000.00 Mo                  
                   consommée par l'initialisation : 210.68 Mo                   
                 par les objets du jeu de commandes : 11.87 Mo                  
                reste pour l'allocation dynamique : 19777.46 Mo                 
                Taille limite des fichiers d'échange : 97.66 Go                 
                                                                                
   
   !----------------------------------------------------------------------------------------------------------------!
   ! <EXCEPTION> <MATRICE0_12>                                                                                      !
   !                                                                                                                !
   !  Une des charges renseignées pour l'assemblage des vecteurs est déjà présente dans le mot-clé                  !
   !  CHARGE définissant les conditions de Dirichlet. Il est interdit de renseigner plus d'une fois la même charge. !
   !----------------------------------------------------------------------------------------------------------------!
   

 --------------------------------------------------------------------------------
 ASTER 11.03.00 CONCEPT Pr_0 CALCULE LE 24/06/2016 A 15:53:18 DE TYPE ACOU_HARMO 

                    ENTITES TOPOLOGIQUES SELECTIONNEES 
 GROUP_MA : ENTREE SORTIE                                                        


 ======>

 ------>
 CHAMP AUX NOEUDS DE NOM SYMBOLIQUE  INTE_NOEU                                   
 NUMERO D'ORDRE: 1 FREQ:   2.00000000000000E+01                                  
 NOEUD        INTX_R       INTX_I       INTY_R       INTY_I       INTZ_R       INTZ_I  
 N1       -3.82242397550446E-28 -1.01691294616650E-01  7.59802474220097E-28 -6.94865541782008E-01 -7.82358965728760E-28 -1.39135886169741E-01
 N2       -8.90904377394425E-29  1.18491140593431E-01 -4.26730608893813E-28 -7.86670841818531E-01  2.57925160384205E-28 -1.46815568106446E-01
 N3       -3.03234973441848E-28  7.09968237373585E-02  7.88860905221012E-29 -8.50416518642213E+02 -2.78295721405989E-28 -8.85274233052030E-02
 N4        1.70380859204117E-28 -6.67150939572410E-02 -3.15544362088405E-28 -8.50396321242019E+02  2.70315823274415E-28 -6.53184136413693E-02
 N18       4.95309700132537E-29  4.68910294871130E-02 -9.46633086265214E-30 -8.50374895300661E+02  1.64440256068281E-28  4.09159534802971E-02
 N19      -2.59657726962176E-28 -5.57352287303887E-02 -3.02922587604869E-28 -8.50445495696916E+02 -1.22327366347700E-29  5.77130417720303E-02
 N28      -1.96687521500491E-28 -1.11586198029937E-01  9.53893071783576E-28 -7.21452731920619E-01  9.85367389306730E-28  1.43912685664257E-01
 N29      -5.69967411461736E-29  5.62640581729957E-02 -3.39348856201031E-28 -7.82453286350144E-01 -8.03432491180246E-29  2.09523504597323E-01
 N41      -2.73805608333645E-28 -1.42320516752947E-01  5.00157843581543E-28 -6.90399466678586E-01 -5.66330485354755E-28 -1.74689640346513E-01
 N42       3.85885101447260E-28  6.02952986509871E-03 -3.21862439468632E-28 -9.19898247847167E-01  3.60525226311546E-28 -1.72773637214249E-01
 N43       3.14388804121772E-29  1.86361013388084E-01 -6.30000958944220E-28 -8.07930066779261E-01  2.63818794903522E-28 -7.40489170430765E-02
 N44      -2.46282913870384E-28  1.84220746005279E-01  4.39081212441180E-29 -7.39078134775433E-01 -4.51468408657489E-28  2.53105385427055E-02
 N45      -5.90805925311757E-28 -6.07433675341220E-02  8.66056799623919E-28 -7.46103283287525E-01  5.18861319643465E-28  1.77085409477232E-01
 N46      -4.48437187518018E-28 -3.90680482651325E-02 -7.66982341052773E-29 -7.25844623829939E-01  9.80282934253548E-29  2.43874585853020E-01
 N47      -1.66547928455367E-28 -1.36790344970462E-01  1.45894365784898E-28 -9.10522892186670E-01 -2.04537446874104E-28 -4.36845462371179E-02
 N48       2.07045365334400E-28 -1.43850413512109E-01  1.60362171633414E-28 -8.92788522821378E-01  2.39515773824791E-28  2.46153410087924E-02
 N64      -5.53570685891871E-29  3.80200317693222E-04 -1.60927624665086E-28 -8.50400569918758E+02  2.21308706206034E-28  6.77386704652166E-03
 N65       4.09146483315569E-29  2.29950184037041E-02 -3.37632467434593E-28 -8.50427668856719E+02 -1.92085608194875E-28 -3.46986748198917E-02
 N110     -4.31294292490033E-28  5.83755738795939E-02  3.07129845766047E-28 -8.50411275901237E+02  1.84423841591281E-29 -4.64645265250015E-02
 N111     -2.95232541929925E-28  8.42410588449281E-02  7.25752032803331E-29 -8.50420572043049E+02  2.68600733758373E-28  2.80972255131379E-03
 N121     -9.21415441055894E-29 -4.18161680987018E-02 -1.54616737423318E-28 -8.50456949205446E+02 -1.00804906626178E-28  7.13837327539834E-02
 N122      1.61942493449281E-28 -1.36541282860240E-02 -5.36425415550288E-29 -8.50473803311642E+02 -3.34591809238394E-29  9.51968929319182E-02
 N123     -1.09833143453052E-28 -1.75669241134671E-02 -8.20415341429852E-29 -8.50384635696371E+02  1.79808569152853E-28 -1.01448446664292E-02
 N124     -1.91931437502827E-28 -6.82077013270280E-02 -1.53039015612876E-28 -8.50423167676246E+02 -9.94728131060181E-29  4.77007426924858E-02
 N248      3.58478097595759E-28 -1.25000681298829E-01 -2.28305590434694E-28 -1.01869958157503E+00 -3.72679625745828E-29 -9.31417769806544E-03
 N249      6.79205387535402E-28  5.00795447358344E-03 -1.01881575539319E-28 -1.08770062043841E+00  6.07899046161814E-29 -2.14765268646010E-02
 N250      5.18598113803280E-29 -3.33683059308994E-02  6.31484915479655E-30 -9.33328433166313E-01 -2.15080372575668E-28  6.53919158545181E-02
 N251     -1.98130765252566E-28 -6.46465829249478E-02  1.01191954347335E-28 -1.01289593329018E+00  3.30034968712008E-29  2.02987403386074E-02
 N302     -1.11126133717019E-28 -9.33913768051829E-03 -6.54754551333440E-29 -8.50433369837303E+02  1.17778115189000E-28 -1.11703046692727E-02
 N303     -1.55494249285115E-28  1.88438660954601E-02  3.31321580192825E-29 -8.50407803543878E+02  1.76656646372648E-29 -3.27545192695354E-02
 N304      3.34285812072152E-29 -3.31837867022737E-04 -6.38977333229020E-29 -8.50356544070692E+02  1.00395904933674E-28  9.69119909807806E-03
 N305     -7.72754009180040E-29 -1.48509946831601E-02 -5.90518734765443E-29 -8.50360283929379E+02 -8.03580112850693E-29  1.97726625165577E-02
 

 ------>
 CHAMP AUX NOEUDS DE NOM SYMBOLIQUE  PRAC_NOEU                                   
 NUMERO D'ORDRE: 1 FREQ:   2.00000000000000E+01                                  
 NOEUD        PRES_R       PRES_I  
 N1       -3.20031439427017E-14 -5.22651003783025E+02
 N2       -3.20032367223497E-14 -5.22652518989664E+02
 N3       -2.08379445935538E-14 -3.40309460785950E+02
 N4       -2.08379986337305E-14 -3.40310343329011E+02
 N18      -2.08380560874779E-14 -3.40311281619910E+02
 N19      -2.08379522315784E-14 -3.40309585524359E+02
 N28      -3.20031675298126E-14 -5.22651388989779E+02
 N29      -3.20032758198088E-14 -5.22653157499627E+02
 N41      -3.20032033959831E-14 -5.22651974728795E+02
 N42      -3.20033179912771E-14 -5.22653846211970E+02
 N43      -3.20033276206761E-14 -5.22654003471989E+02
 N44      -3.20032652914962E-14 -5.22652985559234E+02
 N45      -3.20032327680493E-14 -5.22652454411038E+02
 N46      -3.20032049812517E-14 -5.22652000618196E+02
 N47      -3.20032300865352E-14 -5.22652410618589E+02
 N48      -3.20032610164927E-14 -5.22652915743129E+02
 N64      -2.08380585455994E-14 -3.40311321764082E+02
 N65      -2.08380268799023E-14 -3.40310804624004E+02
 N110     -2.08380359213201E-14 -3.40310952281562E+02
 N111     -2.08380120080881E-14 -3.40310561748845E+02
 N121     -2.08380051617854E-14 -3.40310449940238E+02
 N122     -2.08379929136608E-14 -3.40310249913183E+02
 N123     -2.08380596367842E-14 -3.40311339584482E+02
 N124     -2.08380088490188E-14 -3.40310510157328E+02
 N248     -3.20033711469965E-14 -5.22654714310746E+02
 N249     -3.20034422547566E-14 -5.22655875588596E+02
 N250     -3.20033676171708E-14 -5.22654656664317E+02
 N251     -3.20033580633751E-14 -5.22654500638994E+02
 N302     -2.08380058220351E-14 -3.40310460722934E+02
 N303     -2.08380782138644E-14 -3.40311642971225E+02
 N304     -2.08380940412209E-14 -3.40311901451572E+02
 N305     -2.08380853927662E-14 -3.40311760211588E+02
 
   
   !----------------------------------------------------------------------------------------------------------------!
   ! <EXCEPTION> <MATRICE0_12>                                                                                      !
   !                                                                                                                !
   !  Une des charges renseignées pour l'assemblage des vecteurs est déjà présente dans le mot-clé                  !
   !  CHARGE définissant les conditions de Dirichlet. Il est interdit de renseigner plus d'une fois la même charge. !
   !----------------------------------------------------------------------------------------------------------------!
   

 --------------------------------------------------------------------------------
 ASTER 11.03.00 CONCEPT Pr_1 CALCULE LE 24/06/2016 A 15:53:19 DE TYPE ACOU_HARMO 

                    ENTITES TOPOLOGIQUES SELECTIONNEES 
 GROUP_MA : ENTREE SORTIE                                                        


 ======>

 ------>
 CHAMP AUX NOEUDS DE NOM SYMBOLIQUE  INTE_NOEU                                   
 NUMERO D'ORDRE: 1 FREQ:   3.20000000000000E+01                                  
 NOEUD        INTX_R       INTX_I       INTY_R       INTY_I       INTZ_R       INTZ_I  
 N1       -9.26341488371150E-29 -6.45241908930737E-02 -4.05030771024413E-29 -4.40913640367551E-01  2.15010818991391E-29 -8.82871220355630E-02
 N2        3.22123338778432E-28  7.51883829832751E-02  2.51387783780977E-29 -4.99172992543390E-01 -1.86321396167821E-28 -9.31591172427257E-02
 N3        1.15576259668893E-30  1.68798719283555E-03  1.30162049361467E-29 -9.09203300570531E+01  6.23820746049178E-31 -2.03650410615233E-03
 N4        3.25036789301803E-31 -1.54989730292442E-03  1.18329135783152E-29 -9.09207673230801E+01 -2.05431724930495E-30 -1.36089761480345E-03
 N18       1.31079694794657E-30  1.05284959869860E-03  2.07075987620516E-29 -9.09207529056938E+01  1.71970121547897E-30  1.03962247876862E-03
 N19       4.45010187774976E-32 -1.34426362252975E-03  2.12992444409673E-29 -9.09207971914820E+01  1.49443737740943E-30  1.37846600366361E-03
 N28      -2.56587024258845E-28 -7.08035313977832E-02  2.45372719378667E-28 -4.57784748746575E-01 -6.31173465094362E-29  9.13174907568348E-02
 N29      -5.89219007185831E-29  3.57048675019998E-02  4.87237164770638E-29 -4.96497361835778E-01 -2.91620195503859E-28  1.32946430806139E-01
 N41       4.57870584978621E-29 -9.03039499926659E-02  3.54586813921023E-29 -4.38082006163112E-01  9.01778177860435E-29 -1.10846112391787E-01
 N42       1.77523106205212E-28  3.82848623543329E-03  4.18640675964750E-29 -5.83711107394978E-01  3.82123118289223E-29 -1.09630342926858E-01
 N43       2.05958755659777E-28  1.18253934827187E-01  2.33176190226851E-29 -5.12665230184046E-01 -6.37003736518509E-29 -4.69860101074450E-02
 N44       5.15494408914688E-30  1.16896010724062E-01  3.23340526503284E-29 -4.68975647119935E-01 -4.09324631835425E-29  1.60610652084749E-02
 N45      -1.29648355697050E-28 -3.85413532753789E-02  9.21911849499060E-29 -4.73428714744978E-01 -1.60108911845727E-28  1.12366442865701E-01
 N46       1.18542191783250E-28 -2.47874753696053E-02 -1.19862176018884E-29 -4.60573380843113E-01 -2.57095084578174E-28  1.54745105861825E-01
 N47       2.02282623121785E-29 -8.67948389920395E-02  6.43463099202347E-29 -5.77756225775366E-01  8.55406462058027E-29 -2.77200114326548E-02
 N48      -4.16445757804796E-29 -9.12759713573691E-02  8.34836704853424E-29 -5.66503984628214E-01 -3.54289257744615E-29  1.56202163081742E-02
 N64      -5.51066736222925E-31  2.92417670142522E-05  1.14384831257047E-29 -9.09216432016838E+01  5.36954593484571E-31  1.21485736748068E-04
 N65      -5.89615929310307E-31  5.77279381401601E-04  1.43967115202835E-29 -9.09217012159644E+01  3.97344926284161E-30 -8.29824773084760E-04
 N110     -1.01111723315735E-30  1.42057414430662E-03  1.57772181044202E-29 -9.09213698088963E+01 -9.62184569330736E-31 -1.00169912651751E-03
 N111      3.20853910203837E-30  1.95693528756072E-03  1.91298769516095E-29 -9.09212451742879E+01 -4.12912759692440E-30  1.36375027661242E-04
 N121      1.37320309667579E-31 -1.05489205642042E-03  1.87354464989990E-29 -9.09218483907598E+01  1.47513895751356E-30  1.73857845377728E-03
 N122     -3.42925104982334E-30 -3.50178391905772E-04  1.79465855937780E-29 -9.09221450706127E+01  4.40306103885810E-30  2.27092552245117E-03
 N123      1.03253145332322E-30 -5.74579214145329E-04  1.20583024083783E-29 -9.09211468819367E+01 -2.96180383193314E-30 -4.45094096519911E-05
 N124      1.23496947491740E-30 -1.67670514409047E-03  2.01159530831358E-29 -9.09210715301958E+01  6.89738707661369E-32  1.20102897988138E-03
 N248      6.25324415853258E-29 -7.93128721822743E-02  7.09062694277249E-29 -6.46406027024620E-01  7.00955064860644E-29 -5.90955922042879E-03
 N249      1.00627469218917E-28  3.17945377580318E-03  5.30172365466234E-29 -6.90193254406316E-01  6.31607836371050E-29 -1.36263463008422E-02
 N250      1.09203904309454E-28 -2.11709849649577E-02  4.44942642660498E-29 -5.92236857399054E-01 -9.75308945039319E-29  4.14920961668897E-02
 N251      5.11729135626329E-29 -4.10162121880556E-02  5.73102825411199E-29 -6.42721696336898E-01 -1.22941081478528E-28  1.28799923551920E-02
 N302     -1.42190110048346E-30 -1.87453517571339E-04  9.26911563634689E-30 -9.09217315481807E+01 -2.16374655749079E-30 -2.32216493733669E-04
 N303     -6.74080495978096E-31  5.18286965832066E-04  1.34106353887572E-29 -9.09219506920450E+01 -1.73895086019591E-30 -7.26081295916401E-04
 N304     -8.79912534726101E-32 -2.93404737677836E-05  2.09048139883568E-29 -9.09207710190166E+01 -1.94656664109163E-30  3.57054836173277E-04
 N305     -1.23589724223017E-30 -4.35100363587332E-04  1.63406901795781E-29 -9.09206998359873E+01 -1.21248015881344E-30  6.56033424531757E-04
 

 ------>
 CHAMP AUX NOEUDS DE NOM SYMBOLIQUE  PRAC_NOEU                                   
 NUMERO D'ORDRE: 1 FREQ:   3.20000000000000E+01                                  
 NOEUD        PRES_R       PRES_I  
 N1       -2.01539627291382E-14 -3.29139189244935E+02
 N2       -2.01541122928325E-14 -3.29141631805425E+02
 N3       -2.22709390405759E-15 -3.63712036092069E+01
 N4       -2.22711329338470E-15 -3.63715202609489E+01
 N18      -2.22712992435636E-15 -3.63717918653277E+01
 N19      -2.22709191768358E-15 -3.63711711692576E+01
 N28      -2.01540007546877E-14 -3.29139810249286E+02
 N29      -2.01541753240089E-14 -3.29142661182653E+02
 N41      -2.01540585735503E-14 -3.29140754502969E+02
 N42      -2.01542433134390E-14 -3.29143771534310E+02
 N43      -2.01542588339012E-14 -3.29144025002692E+02
 N44      -2.01541583486307E-14 -3.29142383953689E+02
 N45      -2.01541059262512E-14 -3.29141527831261E+02
 N46      -2.01540611252817E-14 -3.29140796175906E+02
 N47      -2.01541016074961E-14 -3.29141457300638E+02
 N48      -2.01541514696281E-14 -3.29142271611051E+02
 N64      -2.22713412991325E-15 -3.63718605472839E+01
 N65      -2.22712271752168E-15 -3.63716741687856E+01
 N110     -2.22712512016994E-15 -3.63717134070093E+01
 N111     -2.22711532082497E-15 -3.63715533715613E+01
 N121     -2.22711102919920E-15 -3.63714832839936E+01
 N122     -2.22710761399448E-15 -3.63714275094678E+01
 N123     -2.22713232059322E-15 -3.63718309988454E+01
 N124     -2.22711216228382E-15 -3.63715017886696E+01
 N248     -2.01543290097378E-14 -3.29145171061076E+02
 N249     -2.01544436418293E-14 -3.29147043145200E+02
 N250     -2.01543233155887E-14 -3.29145078068565E+02
 N251     -2.01543079199344E-14 -3.29144826638449E+02
 N302     -2.22711660040593E-15 -3.63715742687041E+01
 N303     -2.22714050826684E-15 -3.63719647137031E+01
 N304     -2.22714350596294E-15 -3.63720136697957E+01
 N305     -2.22714048958060E-15 -3.63719644085336E+01
 
   
   !----------------------------------------------------------------------------------------------------------------!
   ! <EXCEPTION> <MATRICE0_12>                                                                                      !
   !                                                                                                                !
   !  Une des charges renseignées pour l'assemblage des vecteurs est déjà présente dans le mot-clé                  !
   !  CHARGE définissant les conditions de Dirichlet. Il est interdit de renseigner plus d'une fois la même charge. !
   !----------------------------------------------------------------------------------------------------------------!
   

 --------------------------------------------------------------------------------
 ASTER 11.03.00 CONCEPT Pr_2 CALCULE LE 24/06/2016 A 15:53:19 DE TYPE ACOU_HARMO 

                    ENTITES TOPOLOGIQUES SELECTIONNEES 
 GROUP_MA : ENTREE SORTIE                                                        


 ======>

 ------>
 CHAMP AUX NOEUDS DE NOM SYMBOLIQUE  INTE_NOEU                                   
 NUMERO D'ORDRE: 1 FREQ:   4.40000000000000E+01                                  
 NOEUD        INTX_R       INTX_I       INTY_R       INTY_I       INTZ_R       INTZ_I  
 N1       -1.35061615139988E-29 -4.79752036521265E-02 -1.89942914835247E-29 -3.27844731444556E-01  4.99432153178498E-30 -6.56477714148910E-02
 N2       -1.09076583144327E-28  5.59091785152682E-02  1.79465855937780E-29 -3.71170500417958E-01  3.17886292900780E-29 -6.92692940593035E-02
 N3        2.38726720326575E-29  3.13491436664957E-02  1.57772181044202E-29  4.06641646992099E+02  1.09943636805290E-29 -3.98441232344057E-02
 N4        1.78452816787032E-29 -2.98588871966418E-02 -3.15544362088405E-30  4.06657973629308E+02 -1.77224073482513E-30 -3.09619183108609E-02
 N18       8.39339529063401E-30  2.13896740482691E-02 -1.10440526730942E-29  4.06672354835948E+02  8.72609366999583E-30  1.73285263869157E-02
 N19       6.67355910959565E-29 -2.43988769757424E-02  5.04870979341448E-29  4.06628803560590E+02  1.97741005180071E-29  2.54124507225048E-02
 N28       4.06417440584372E-29 -5.26450366340523E-02  3.46790649506143E-29 -3.40390151579644E-01  1.12323315844575E-28  6.79003106365516E-02
 N29       4.23745754517753E-29  2.65525253904943E-02  1.22268818077390E-28 -3.69181600140506E-01  3.87799957294467E-29  9.88504060010561E-02
 N41      -2.69388488006192E-29 -6.71431412020563E-02  2.23461799587362E-29 -3.25741669446789E-01 -1.90258767346126E-29 -8.24206343039469E-02
 N42      -5.37301713674984E-29  2.84948620755038E-03  4.64678105355382E-29 -4.34030783991383E-01 -3.81032399964052E-30 -8.15166326171901E-02
 N43      -3.69959586737122E-29  8.79309250184806E-02  3.27770165375375E-29 -3.81205586407646E-01  9.35395285039715E-30 -3.49364679783137E-02
 N44       8.24952832378829E-30  8.69213840077947E-02  1.00102134789471E-29 -3.48718875627665E-01  1.96220964971463E-30  1.19431407407904E-02
 N45      -1.03475160345822E-29 -2.86553410913407E-02  1.83333123266110E-29 -3.52024983663789E-01  1.00894847554581E-28  8.35512412911008E-02
 N46      -9.14290463226633E-29 -1.84283017266952E-02  5.29291771036278E-29 -3.42465660913813E-01  6.34087397100220E-29  1.15060992712809E-01
 N47       3.63615573500310E-30 -6.45338644951709E-02  8.80249032410678E-30 -4.29596543573472E-01 -1.11603788417352E-29 -2.06123166589691E-02
 N48       5.83313143011367E-29 -6.78672585947081E-02 -7.10051851896686E-30 -4.21230683107521E-01  7.07030067813943E-29  1.16156433928318E-02
 N64       3.83966233246002E-30 -5.51603581622059E-05 -1.68290326447149E-29  4.06662025235282E+02  1.51548137193510E-29  3.42640076593224E-03
 N65       8.22882457688612E-30  9.81676716935420E-03 -7.09974814698911E-30  4.06645211717117E+02  9.45650861993577E-30 -1.52691891988397E-02
 N110      2.91142829693018E-29  2.54161250621542E-02 -7.36270178206278E-30  4.06653135134194E+02 -3.61445692429634E-30 -2.16555124458396E-02
 N111      3.04073523339634E-29  3.77040249904171E-02 -1.41994962939782E-29  4.06647135964779E+02  1.59958171716393E-29  4.70987064206360E-04
 N121      2.34774230598207E-29 -1.77946006138301E-02  1.02551917678732E-29  4.06629610077030E+02  2.47184923159838E-29  3.10620941716157E-02
 N122      3.50050767419505E-29 -5.74754142640806E-03 -6.31088724176809E-30  4.06621059460466E+02  1.25835447741401E-29  4.19498219734861E-02
 N123      5.05857880871521E-30 -6.02578343589493E-03 -1.80311064050517E-30  4.06669006543050E+02  2.45611094479212E-30 -6.65115080384101E-03
 N124      3.61037716269748E-29 -2.95104522124398E-02  2.91878534931774E-29  4.06644743731467E+02  4.30987010367406E-31  2.03225837651023E-02
 N248     -2.07933893114243E-29 -5.89694370565837E-02  2.48666829955547E-29 -4.80650707313757E-01  1.17435865400821E-30 -4.39347412031814E-03
 N249     -2.84902224079375E-29  2.36601145363554E-03  1.39619846872981E-29 -5.13213316192594E-01  2.59503504418168E-30 -1.01306996028590E-02
 N250     -3.50421440150587E-29 -1.57394194447863E-02  2.33752868678771E-29 -4.40374390622481E-01  9.79672414461177E-30  3.08505795476717E-02
 N251     -1.96042054104338E-29 -3.04935291441331E-02  1.69843909935622E-29 -4.77909307944864E-01  4.28844839616893E-29  9.57681657819309E-03
 N302      4.22082894566707E-30 -4.50541789990280E-03 -1.69605094622518E-29  4.06641744000862E+02  1.39297156384871E-29 -5.30177594823650E-03
 N303      1.87071594029408E-29  7.54572875687120E-03 -3.68135089103139E-30  4.06659737946206E+02  6.34085952652762E-30 -1.50460529354082E-02
 N304      2.92687707627061E-29  8.98703666680641E-05  6.70531769437860E-30  4.06683586970952E+02  1.98581948196276E-29  2.88017408262444E-03
 N305      1.74699660807908E-29 -5.65289219011565E-03  1.01424973528416E-29  4.06680552341257E+02  8.13071908118328E-30  6.67778285704936E-03
 

 ------>
 CHAMP AUX NOEUDS DE NOM SYMBOLIQUE  PRAC_NOEU                                   
 NUMERO D'ORDRE: 1 FREQ:   4.40000000000000E+01                                  
 NOEUD        PRES_R       PRES_I  
 N1       -1.48206930157588E-14 -2.42040285020587E+02
 N2       -1.48209009325162E-14 -2.42043680558918E+02
 N3        9.95576612018051E-15  1.62589999453101E+02
 N4        9.95587547305068E-15  1.62591785320998E+02
 N18       9.95600526726759E-15  1.62593905021421E+02
 N19       9.95579763695176E-15  1.62590514161036E+02
 N28      -1.48207458820297E-14 -2.42041148392312E+02
 N29      -1.48209885654907E-14 -2.42045111714001E+02
 N41      -1.48208262622233E-14 -2.42042461100493E+02
 N42      -1.48210830970135E-14 -2.42046655530925E+02
 N43      -1.48211046679270E-14 -2.42047007810676E+02
 N44      -1.48209649601528E-14 -2.42044726209577E+02
 N45      -1.48208920979799E-14 -2.42043536279992E+02
 N46      -1.48208298018602E-14 -2.42042518907150E+02
 N47      -1.48208861022264E-14 -2.42043438361906E+02
 N48      -1.48209554225441E-14 -2.42044570448606E+02
 N64       9.95599894309769E-15  1.62593801739888E+02
 N65       9.95593504058155E-15  1.62592758132602E+02
 N110      9.95595619488007E-15  1.62593103608515E+02
 N111      9.95591195422169E-15  1.62592381103733E+02
 N121      9.95590433225456E-15  1.62592256627564E+02
 N122      9.95587622732346E-15  1.62591797639207E+02
 N123      9.95600862362304E-15  1.62593959834865E+02
 N124      9.95591243234881E-15  1.62592388912142E+02
 N248     -1.48212022436526E-14 -2.42048601343207E+02
 N249     -1.48213616085082E-14 -2.42051203968807E+02
 N250     -1.48211943198536E-14 -2.42048471937750E+02
 N251     -1.48211729284022E-14 -2.42048122588835E+02
 N302      9.95588755345926E-15  1.62591982609042E+02
 N303      9.95604104919111E-15  1.62594489384578E+02
 N304      9.95608218289845E-15  1.62595161148998E+02
 N305      9.95606438705763E-15  1.62594870520862E+02
 
   
   !----------------------------------------------------------------------------------------------------------------!
   ! <EXCEPTION> <MATRICE0_12>                                                                                      !
   !                                                                                                                !
   !  Une des charges renseignées pour l'assemblage des vecteurs est déjà présente dans le mot-clé                  !
   !  CHARGE définissant les conditions de Dirichlet. Il est interdit de renseigner plus d'une fois la même charge. !
   !----------------------------------------------------------------------------------------------------------------!
   

 --------------------------------------------------------------------------------
 ASTER 11.03.00 CONCEPT Pr_3 CALCULE LE 24/06/2016 A 15:53:19 DE TYPE ACOU_HARMO 

                    ENTITES TOPOLOGIQUES SELECTIONNEES 
 GROUP_MA : ENTREE SORTIE                                                        


 ======>

 ------>
 CHAMP AUX NOEUDS DE NOM SYMBOLIQUE  INTE_NOEU                                   
 NUMERO D'ORDRE: 1 FREQ:   5.60000000000000E+01                                  
 NOEUD        INTX_R       INTX_I       INTY_R       INTY_I       INTZ_R       INTZ_I  
 N1        1.28382490092853E-29 -3.88086597982911E-02 -7.76843102368035E-30 -2.65220377291870E-01  8.20446156308962E-32 -5.31091229155118E-02
 N2        2.84756445997430E-29  4.52319246592036E-02  8.36932116632917E-30 -3.00277132133607E-01  2.62427214222205E-30 -5.60377113140034E-02
 N3       -3.02656038900565E-29  1.66517969149493E-01  1.38839519318898E-28  8.14712246392024E+02 -9.29916014347933E-30 -2.10338187376731E-01
 N4        6.54184476069901E-29 -1.57908297872767E-01  1.57772181044202E-28  8.14786950534582E+02  7.93806693318198E-29 -1.60791681503340E-01
 N18       1.21706253940635E-28  1.12431927202094E-01 -5.20648197445868E-29  8.14854955343469E+02  3.88230643378280E-29  9.33189350967731E-02
 N19      -6.41041930129403E-29 -1.29964754181087E-01  2.52435489670724E-29  8.14643360682804E+02 -3.72444036365381E-29  1.35099852696371E-01
 N28      -2.02492274352874E-30 -4.25873002518115E-02  3.68545954157941E-30 -2.75370220272711E-01  3.72162850593501E-29  5.49306255665257E-02
 N29       9.70307580106594E-31  2.14846534955617E-02  4.15939238229423E-29 -2.98668772111711E-01  4.71839595606505E-30  7.99650413244323E-02
 N41      -1.08818893717768E-29 -5.43143173404051E-02  1.00048208751028E-29 -2.63521615846962E-01  3.63249646810877E-30 -6.66769458998847E-02
 N42      -2.96753705597667E-30  2.30814757854818E-03 -9.70514617575616E-30 -3.51131351585513E-01  5.16174904161704E-30 -6.59456176086859E-02
 N43       3.92258003633237E-29  7.11369558638622E-02  2.52913120296932E-29 -3.08398343902570E-01 -9.56922366993103E-30 -2.82625981419015E-02
 N44       2.47847924543193E-30  7.03204195178771E-02  2.39100350735787E-29 -2.82116142076442E-01  7.65602893730105E-30  9.66264668221025E-03
 N45       2.19524476557306E-29 -2.31791133340830E-02  1.98293747074110E-30 -2.84785396906150E-01 -8.06406127014380E-30  6.75917502194332E-02
 N46       1.30391957248578E-29 -1.49053730706235E-02  9.65044976533556E-30 -2.77051398259316E-01 -2.59110762857970E-29  9.30812525165240E-02
 N47       3.50043270049364E-30 -5.22034069715926E-02 -1.19416460803183E-29 -3.47537276156124E-01  3.54990158677947E-31 -1.66759319264350E-02
 N48       2.27637215706794E-29 -5.49015662887335E-02 -1.20617140557084E-29 -3.40770332042292E-01 -5.05075127915553E-31  9.39802580236437E-03
 N64      -5.62768927306265E-29  9.27569736800064E-05  6.62643160385650E-29  8.14798984577586E+02  5.65196241012841E-31  1.74401163535225E-02
 N65      -2.15521190426654E-29  5.27291350922199E-02  5.36425415550288E-29  8.14717588037722E+02 -9.82580568677202E-29 -8.12019209469165E-02
 N110      5.55489554093129E-29  1.35628859872628E-01  4.20725816117873E-30  8.14758471676918E+02 -2.48188172166702E-30 -1.13065125046446E-01
 N111      3.85879323657427E-29  1.99394838217611E-01 -2.99767143983984E-29  8.14729304432014E+02  9.97036117357286E-29  3.82550611878886E-03
 N121     -6.30960649835508E-29 -9.56801364666195E-02 -8.36192559534273E-29  8.14638306421807E+02  3.22789710539190E-29  1.65780874514867E-01
 N122      7.03619245882433E-29 -3.10185673518538E-02 -9.15078650056374E-29  8.14594804361530E+02  1.15471440931670E-28  2.22965918932724E-01
 N123     -1.13842269278428E-29 -3.50077359758967E-02  4.41762106923767E-29  8.14835780546542E+02 -4.42580352017282E-29 -3.15736453890847E-02
 N124     -1.01818908741898E-28 -1.57803424030385E-01 -7.88860905221012E-29  8.14718339135468E+02  8.64583655809457E-30  1.09222076621919E-01
 N248     -7.69852458152396E-30 -4.77006591631834E-02 -3.07131900091321E-30 -3.88848818054183E-01  2.88956959391450E-30 -3.55357530598885E-03
 N249      8.17871336121774E-30  1.91608691212258E-03  1.72752953042390E-30 -4.15195925612280E-01  5.38666309114811E-30 -8.19419260417456E-03
 N250      1.71766469502606E-30 -1.27303156319239E-02  1.67164115984431E-29 -3.56267704671740E-01  7.56999833451740E-30  2.49562892190881E-02
 N251      2.42124301489718E-29 -2.46640317840486E-02 -1.21084499556922E-29 -3.86629068242158E-01 -1.39529908027916E-29  7.74725565224803E-03
 N302     -6.39867353604570E-29 -2.32703726433769E-02  6.94197596594490E-29  8.14700755507773E+02 -3.23882194300143E-29 -2.75278262379260E-02
 N303     -1.22129497107684E-29  4.14249322374097E-02  5.67979851759128E-29  8.14785438114087E+02 -1.16771379446467E-29 -7.89191730471733E-02
 N304      3.89793573143970E-29  6.64783539583522E-05  1.97215226305253E-30  8.14909766248600E+02  3.34232322377212E-29  1.77141826360400E-02
 N305     -3.83380567121009E-29 -3.15947870736620E-02 -3.20052138689668E-29  8.14895927819525E+02 -4.61227205738839E-30  3.90199081719060E-02
 

 ------>
 CHAMP AUX NOEUDS DE NOM SYMBOLIQUE  PRAC_NOEU                                   
 NUMERO D'ORDRE: 1 FREQ:   5.60000000000000E+01                                  
 NOEUD        PRES_R       PRES_I  
 N1       -1.18160658792154E-14 -1.92971000086591E+02
 N2       -1.18163343509660E-14 -1.92975384563010E+02
 N3        1.99333946678953E-14  3.25537039443107E+02
 N4        1.99337644759564E-14  3.25543078867068E+02
 N18       1.99341884843809E-14  3.25550003450134E+02
 N19       1.99334835356151E-14  3.25538490763109E+02
 N28      -1.18161341508368E-14 -1.92972115046782E+02
 N29      -1.18164475234620E-14 -1.92977232810130E+02
 N41      -1.18162379465659E-14 -1.92973810159678E+02
 N42      -1.18165696135593E-14 -1.92979226692732E+02
 N43      -1.18165974585283E-14 -1.92979681435585E+02
 N44      -1.18164170313870E-14 -1.92976734836756E+02
 N45      -1.18163229705905E-14 -1.92975198707374E+02
 N46      -1.18162425040752E-14 -1.92973884589452E+02
 N47      -1.18163152421716E-14 -1.92975072492715E+02
 N48      -1.18164047589342E-14 -1.92976534412392E+02
 N64       1.99341795431718E-14  3.25549857429109E+02
 N65       1.99339632506765E-14  3.25546325104599E+02
 N110      1.99340316363252E-14  3.25547441926996E+02
 N111      1.99338774645287E-14  3.25544924110485E+02
 N121      1.99338448034214E-14  3.25544390714125E+02
 N122      1.99337534430752E-14  3.25542898686444E+02
 N123      1.99342040218610E-14  3.25550257196441E+02
 N124      1.99338714724425E-14  3.25544826252291E+02
 N248     -1.18167234875239E-14 -1.92981739645278E+02
 N249     -1.18169292811679E-14 -1.92985100510535E+02
 N250     -1.18167132422684E-14 -1.92981572327558E+02
 N251     -1.18166856391566E-14 -1.92981121534534E+02
 N302      1.99338080721901E-14  3.25543790847595E+02
 N303      1.99343193959285E-14  3.25552141397953E+02
 N304      1.99344484466743E-14  3.25554248956572E+02
 N305      1.99343885879043E-14  3.25553271388671E+02
 
   
   !----------------------------------------------------------------------------------------------------------------!
   ! <EXCEPTION> <MATRICE0_12>                                                                                      !
   !                                                                                                                !
   !  Une des charges renseignées pour l'assemblage des vecteurs est déjà présente dans le mot-clé                  !
   !  CHARGE définissant les conditions de Dirichlet. Il est interdit de renseigner plus d'une fois la même charge. !
   !----------------------------------------------------------------------------------------------------------------!
   

 --------------------------------------------------------------------------------
 ASTER 11.03.00 CONCEPT Pr_4 CALCULE LE 24/06/2016 A 15:53:19 DE TYPE ACOU_HARMO 

                    ENTITES TOPOLOGIQUES SELECTIONNEES 
 GROUP_MA : ENTREE SORTIE                                                        


 ======>

 ------>
 CHAMP AUX NOEUDS DE NOM SYMBOLIQUE  INTE_NOEU                                   
 NUMERO D'ORDRE: 1 FREQ:   6.80000000000000E+01                                  
 NOEUD        INTX_R       INTX_I       INTY_R       INTY_I       INTZ_R       INTZ_I  
 N1       -1.65707012415078E-30 -3.31375391284201E-02  1.15632833861010E-29 -2.26481016242514E-01  1.43131261606971E-29 -4.53531038453205E-02
 N2        9.67047943675719E-30  3.86276995286384E-02 -6.41565783074276E-30 -2.56424625992355E-01 -1.08930597654542E-30 -4.78527033152278E-02
 N3       -1.63537644925720E-28  4.32071774812924E-01  1.51461293802434E-28  1.18523628374476E+03  1.00354816798175E-28 -5.44864751502294E-01
 N4        5.13221811580311E-29 -4.09243481231816E-01 -2.52435489670724E-29  1.18542131164830E+03  1.44725161228945E-28 -4.14638969403147E-01
 N18       1.26416115619634E-28  2.90902911960557E-01 -3.47098798297245E-29  1.18559176156336E+03  8.71836707980019E-29  2.43027712596798E-01
 N19      -1.25136142578594E-28 -3.37479167925319E-01 -5.04870979341448E-29  1.18505734533972E+03 -4.16154942383194E-29  3.50618274854709E-01
 N28       1.15740685937895E-29 -3.63651331194543E-02 -1.73734288423284E-29 -2.35149201798140E-01 -3.17932515219445E-30  4.69077448213008E-02
 N29      -3.38674780720495E-30  1.83508931109276E-02  1.97215226305253E-29 -2.55051852129885E-01 -2.14034613250830E-30  6.82816553411292E-02
 N41      -4.21104582340269E-31 -4.63774630152039E-02  6.21305000059322E-31 -2.25033112512784E-01  4.26343111789002E-30 -5.69379642217760E-02
 N42      -9.77024260787645E-31  1.97414874114736E-03  9.03903120565743E-32 -2.99852319233989E-01  4.60987381605288E-30 -5.63134491622594E-02
 N43      -6.17655362814708E-30  6.07489442530787E-02 -1.79658448932219E-29 -2.63362803128333E-01  1.19690046030104E-29 -2.41340414691711E-02
 N44      -5.25075910388014E-30  6.00518485858170E-02  1.61046261949661E-30 -2.40918395798585E-01  4.19780505503503E-31  8.25219037816974E-03
 N45       2.63267401160444E-30 -1.97907792690267E-02 -3.91503039095037E-30 -2.43192128632224E-01  6.51214692095656E-30  5.77193222552890E-02
 N46       4.02675840184914E-30 -1.27252733770151E-02  6.08439788030816E-30 -2.36587072647129E-01 -7.29291892041115E-30  7.94843195453551E-02
 N47      -3.74521839642526E-30 -4.45748259826303E-02 -3.53622748417432E-30 -2.96775953592392E-01  1.08727824744683E-29 -1.42411660205145E-02
 N48       3.85089692380228E-31 -4.68804722013331E-02 -1.07698002490134E-29 -2.90998357586290E-01  7.06252955081382E-30  8.02655842913551E-03
 N64       4.18801170126782E-29  5.10834472254728E-04 -6.52125014982703E-29  1.18544550959215E+03  9.27543268656448E-29  4.47078896109764E-02
 N65       5.28371176522861E-29  1.37233159561580E-01  1.57772181044202E-29  1.18524008621724E+03  6.11971943548822E-29 -2.10776146864601E-01
 N110     -1.90002490268193E-28  3.52365372055761E-01  1.05181454029468E-28  1.18534532091589E+03  4.64965710893744E-29 -2.92012273541846E-01
 N111     -9.06727817817511E-30  5.16760115755425E-01  6.31088724176809E-29  1.18527177979339E+03  7.86069269766623E-29  1.08400525302329E-02
 N121     -6.87065878010424E-29 -2.49081692684838E-01 -3.15544362088405E-30  1.18503730336875E+03 -4.91058209780302E-29  4.30703103310478E-01
 N122      6.61331602093522E-29 -8.08320028920562E-02 -2.52435489670724E-29  1.18492579239009E+03 -7.97581516009197E-29  5.78625482151802E-01
 N123      1.19030174282909E-29 -9.29492606683543E-02 -7.75337575417223E-29  1.18554093420314E+03  8.16180496614994E-29 -7.92963713503072E-02
 N124      1.45369192202349E-30 -4.10200135451691E-01 -3.15544362088405E-29  1.18524471195919E+03 -1.90493730799341E-29  2.84285569417435E-01
 N248      1.47238307213376E-30 -4.07284704362108E-02  2.31589223952676E-30 -3.32063560182003E-01  5.73819782925652E-30 -3.03381868053111E-03
 N249      2.71333899472709E-30  1.63836068104008E-03 -4.05097141533266E-30 -3.54567103917094E-01  1.14479868492379E-29 -6.99587137604239E-03
 N250      4.18798625147927E-31 -1.08681259941370E-02  1.30681500180753E-29 -3.04243188171810E-01 -2.36519673393520E-30  2.13097160758772E-02
 N251     -2.82537734577956E-30 -2.10565353761992E-02  4.91176333483558E-30 -3.30165912233825E-01  6.49473606286947E-30  6.61542900849214E-03
 N302      6.41295189917090E-29 -5.99157528544892E-02 -1.04129639489174E-28  1.18519756014709E+03  1.78193779209512E-29 -7.09932355124422E-02
 N303     -7.03741622680982E-30  1.08435403666730E-01  2.31399198864830E-29  1.18540929504047E+03  1.90885336554700E-30 -2.04086685122096E-01
 N304      6.12313753796154E-29 -1.18892325378844E-04 -3.39210189245035E-29  1.18573032702206E+03 -2.13299630235803E-29  4.76479565895454E-02
 N305     -1.41859322445127E-29 -8.30850031749953E-02 -4.05699894113663E-29  1.18569607345284E+03 -4.71155649735005E-29  1.03730130876034E-01
 

 ------>
 CHAMP AUX NOEUDS DE NOM SYMBOLIQUE  PRAC_NOEU                                   
 NUMERO D'ORDRE: 1 FREQ:   6.80000000000000E+01                                  
 NOEUD        PRES_R       PRES_I  
 N1       -9.90896515789204E-15 -1.61825681736008E+02
 N2       -9.90929706298787E-15 -1.61831102157571E+02
 N3        2.89749168140125E-14  4.73196301728564E+02
 N4        2.89757187474809E-14  4.73209398295982E+02
 N18       2.89766295294180E-14  4.73224272493794E+02
 N19       2.89750992171588E-14  4.73199280598004E+02
 N28      -9.90904957306833E-15 -1.61827060340457E+02
 N29      -9.90943700105077E-15 -1.61833387519571E+02
 N41      -9.90917790103350E-15 -1.61829156095172E+02
 N42      -9.90958797889275E-15 -1.61835853174845E+02
 N43      -9.90962239007698E-15 -1.61836415152131E+02
 N44      -9.90939928639744E-15 -1.61832771592540E+02
 N45      -9.90928303538799E-15 -1.61830873069480E+02
 N46      -9.90918351537173E-15 -1.61829247784274E+02
 N47      -9.90927350175656E-15 -1.61830717373463E+02
 N48      -9.90938418012396E-15 -1.61832524888372E+02
 N64       2.89766173574666E-14  4.73224073710743E+02
 N65       2.89761482221334E-14  4.73216412149327E+02
 N110      2.89762946813480E-14  4.73218804009816E+02
 N111      2.89759577302605E-14  4.73213301180955E+02
 N121      2.89758828809802E-14  4.73212078799444E+02
 N122      2.89756869419399E-14  4.73208878872079E+02
 N123      2.89766656096566E-14  4.73224861728807E+02
 N124      2.89759402633308E-14  4.73213015924347E+02
 N248     -9.90977824986877E-15 -1.61838960535696E+02
 N249     -9.91003268956209E-15 -1.61843115851229E+02
 N250     -9.90976556292619E-15 -1.61838753342201E+02
 N251     -9.90973146627332E-15 -1.61838196501601E+02
 N302      2.89758149174387E-14  4.73210968870581E+02
 N303      2.89769191558563E-14  4.73229002452481E+02
 N304      2.89771931382785E-14  4.73233476924996E+02
 N305      2.89770635176126E-14  4.73231360058877E+02
 
   
   !----------------------------------------------------------------------------------------------------------------!
   ! <EXCEPTION> <MATRICE0_12>                                                                                      !
   !                                                                                                                !
   !  Une des charges renseignées pour l'assemblage des vecteurs est déjà présente dans le mot-clé                  !
   !  CHARGE définissant les conditions de Dirichlet. Il est interdit de renseigner plus d'une fois la même charge. !
   !----------------------------------------------------------------------------------------------------------------!
   

 --------------------------------------------------------------------------------
 ASTER 11.03.00 CONCEPT Pr_5 CALCULE LE 24/06/2016 A 15:53:19 DE TYPE ACOU_HARMO 

                    ENTITES TOPOLOGIQUES SELECTIONNEES 
 GROUP_MA : ENTREE SORTIE                                                        


 ======>

 ------>
 CHAMP AUX NOEUDS DE NOM SYMBOLIQUE  INTE_NOEU                                   
 NUMERO D'ORDRE: 1 FREQ:   8.00000000000000E+01                                  
 NOEUD        INTX_R       INTX_I       INTY_R       INTY_I       INTZ_R       INTZ_I  
 N1       -1.63777230610802E-29 -2.94126730750666E-02 -6.76078447677695E-30 -2.01041540018342E-01  2.79760583721690E-30 -4.02602515150475E-02
 N2        4.51669090557695E-30  3.42915632229739E-02  1.50992907639959E-30 -2.27629585995232E-01  8.66398844782042E-30 -4.24777852523602E-02
 N3       -2.54962309757760E-29  8.61174880577023E-01  1.76704842769507E-28  1.54016498280503E+03  2.79645027925027E-28 -1.08516184700299E+00
 N4        1.31678141413689E-28 -8.15224870309074E-01  6.68954047627418E-28  1.54052550992842E+03  2.91860046004308E-28 -8.24071077726610E-01
 N18      -4.30429935130992E-29  5.79050188278623E-01  1.57772181044202E-29  1.54085961084151E+03  1.17874808909271E-28  4.85189344570256E-01
 N19      -9.61547487754549E-29 -6.72867849203008E-01 -2.52435489670724E-29  1.53980819741468E+03  1.84316117909725E-28  6.98866138225966E-01
 N28      -1.59332184299156E-29 -3.22786595580711E-02 -6.93334779979405E-32 -2.08737002022753E-01 -3.28602167111350E-30  4.16394164685643E-02
 N29       8.29185063431620E-31  1.62942814707826E-02  5.57479681702329E-30 -2.26411710750289E-01 -4.94055197515012E-30  6.06084152878690E-02
 N41       1.01246137176437E-30 -4.11644658877625E-02 -3.24904381618127E-30 -1.99759162255220E-01  5.95882724793411E-31 -5.05425911163303E-02
 N42       4.37006343914426E-30  1.75572984512512E-03 -5.71179463373404E-30 -2.66180837899979E-01  5.81550596123929E-30 -4.99882159409239E-02
 N43       6.47093202014667E-30  5.39280676078848E-02  7.66635673662783E-30 -2.33791810781000E-01 -1.80796673529352E-30 -2.14227759759211E-02
 N44       1.82154454140145E-30  5.33094569701489E-02  8.81690728540477E-30 -2.13867295198413E-01 -1.85505572243379E-30  7.32623473465977E-03
 N45       8.58350865026934E-31 -1.75649390460622E-02 -1.16495650476095E-29 -2.15879660104241E-01 -9.14161907402845E-30  5.12363689959673E-02
 N46       4.93295658893194E-30 -1.12927821801847E-02 -7.80386813465708E-31 -2.10015751211212E-01 -9.54876066427192E-30  7.05551449461241E-02
 N47       1.31342919550226E-30 -3.95642504816092E-02 -8.00966750585732E-31 -2.63442337448642E-01  1.10659807611753E-30 -1.26425867646796E-02
 N48      -1.77744074567498E-30 -4.16126025328867E-02 -2.71864270949702E-30 -2.58314701437826E-01 -3.64970946698673E-30  7.12630396939346E-03
 N64       6.09066357239389E-29  1.26465539992492E-03  1.68290326447149E-28  1.54056711008418E+03  4.01718171520067E-29  8.85878785223423E-02
 N65       1.11347254548759E-28  2.73910311241685E-01  3.15544362088405E-30  1.54016308633021E+03  2.34873319693845E-28 -4.20194745485739E-01
 N110     -4.66516726475624E-29  7.02723227518536E-01  1.34632261157719E-28  1.54037204107703E+03  1.67266245298054E-28 -5.80796698205180E-01
 N111      8.66483585699595E-29  1.02939843962827E+00  1.57772181044202E-28  1.54022751915046E+03  5.37177491193571E-29  2.24145045807826E-02
 N121      6.26813159700270E-29 -4.97203355056083E-01  1.83015730011275E-28  1.53976172586142E+03  2.29660212520378E-28  8.58928668541059E-01
 N122      1.00446876249516E-28 -1.61432683006686E-01 -1.73549399148623E-28  1.53954075349664E+03  3.69485807970802E-28  1.15332998987193E+00
 N123      1.82802667132856E-29 -1.87210141536565E-01  9.01555320252585E-29  1.54075729848750E+03  1.01664008947799E-28 -1.55650525780286E-01
 N124      1.17571089757041E-28 -8.18264168403736E-01  1.29373188456246E-28  1.54017488227705E+03  2.51539932246584E-28  5.67403329257236E-01
 N248      3.89622849986829E-30 -3.61485582197360E-02 -3.01985815279919E-30 -2.94777097498680E-01  9.21276713914587E-31 -2.69229807556155E-03
 N249     -5.18978860629456E-31  1.45660647756290E-03  8.40535087113494E-31 -3.14758037777076E-01 -1.44938820934007E-30 -6.20853580721525E-03
 N250     -1.28444910858015E-30 -9.64446208139518E-03  3.93252884015938E-30 -2.70083541946803E-01 -2.38294968102971E-30  1.89146861913646E-02
 N251      3.54854197194969E-30 -1.86861162827538E-02 -3.31491062027931E-30 -2.93090351961624E-01 -3.99688040740980E-30  5.87211324929785E-03
 N302      1.73818644154848E-28 -1.18991998682619E-01 -8.83524213847533E-29  1.54007940803682E+03  6.52376027852122E-29 -1.41119908947394E-01
 N303      8.44595793117039E-29  2.17003991483395E-01  6.62643160385650E-29  1.54049390824538E+03  7.92145257752840E-29 -4.06166919702873E-01
 N304      6.62689382704315E-29 -5.09668468685887E-04  1.81438008200833E-29  1.54113233279137E+03  1.27002922399564E-28  9.64910818109259E-02
 N305      1.07198911501689E-28 -1.66618877153804E-01  6.04042064569232E-29  1.54106560230212E+03  2.00666492765595E-28  2.09009028812718E-01
 

 ------>
 CHAMP AUX NOEUDS DE NOM SYMBOLIQUE  PRAC_NOEU                                   
 NUMERO D'ORDRE: 1 FREQ:   8.00000000000000E+01                                  
 NOEUD        PRES_R       PRES_I  
 N1       -8.60733686409870E-15 -1.40568478521178E+02
 N2       -8.60773581446088E-15 -1.40574993875033E+02
 N3        3.76137911415471E-14  6.14279826113705E+02
 N4        3.76152399760068E-14  6.14303487376050E+02
 N18       3.76168783435929E-14  6.14330243949247E+02
 N19       3.76141122341291E-14  6.14285069953517E+02
 N28      -8.60743834936257E-15 -1.40570135901313E+02
 N29      -8.60790405700285E-15 -1.40577741484255E+02
 N41      -8.60759261100303E-15 -1.40572655185086E+02
 N42      -8.60808559117807E-15 -1.40580706162321E+02
 N43      -8.60812693498670E-15 -1.40581381357956E+02
 N44      -8.60785869805357E-15 -1.40577000716397E+02
 N45      -8.60771901307189E-15 -1.40574719487528E+02
 N46      -8.60759933071812E-15 -1.40572764926362E+02
 N47      -8.60770758353486E-15 -1.40574532829023E+02
 N48      -8.60784063481691E-15 -1.40576705721356E+02
 N64       3.76168622281077E-14  6.14329980763401E+02
 N65       3.76160145803007E-14  6.14316137624177E+02
 N110      3.76162776778847E-14  6.14320434333795E+02
 N111      3.76156668051487E-14  6.14310458024928E+02
 N121      3.76155282489384E-14  6.14308195230294E+02
 N122      3.76151760921421E-14  6.14302444073364E+02
 N123      3.76169454016102E-14  6.14331339089779E+02
 N124      3.76156315024362E-14  6.14309881487882E+02
 N248     -8.60831435503147E-15 -1.40584442159566E+02
 N249     -8.60862022347182E-15 -1.40589437370276E+02
 N250     -8.60829907518512E-15 -1.40584192620739E+02
 N251     -8.60825813172849E-15 -1.40583523963348E+02
 N302      3.76154151213108E-14  6.14306347715931E+02
 N303      3.76174062793088E-14  6.14338865793787E+02
 N304      3.76178964413218E-14  6.14346870746942E+02
 N305      3.76176624024213E-14  6.14343048601640E+02
 
   
   !----------------------------------------------------------------------------------------------------------------!
   ! <EXCEPTION> <MATRICE0_12>                                                                                      !
   !                                                                                                                !
   !  Une des charges renseignées pour l'assemblage des vecteurs est déjà présente dans le mot-clé                  !
   !  CHARGE définissant les conditions de Dirichlet. Il est interdit de renseigner plus d'une fois la même charge. !
   !----------------------------------------------------------------------------------------------------------------!
   

 --------------------------------------------------------------------------------
 ASTER 11.03.00 CONCEPT Pr_6 CALCULE LE 24/06/2016 A 15:53:20 DE TYPE ACOU_HARMO 

                    ENTITES TOPOLOGIQUES SELECTIONNEES 
 GROUP_MA : ENTREE SORTIE                                                        


 ======>

 ------>
 CHAMP AUX NOEUDS DE NOM SYMBOLIQUE  INTE_NOEU                                   
 NUMERO D'ORDRE: 1 FREQ:   9.20000000000000E+01                                  
 NOEUD        INTX_R       INTX_I       INTY_R       INTY_I       INTZ_R       INTZ_I  
 N1        2.99809514442761E-30 -2.68988451023079E-02  8.06271311918272E-30 -1.83878580528700E-01 -7.37631168700311E-30 -3.68247489946848E-02
 N2        6.35171695658910E-31  3.13669754782788E-02  1.43597336653512E-30 -2.08205142721652E-01 -2.64083513974378E-30 -3.88515912525913E-02
 N3        4.29374525521468E-29  1.49436676018786E+00  3.53409685539013E-28  1.89117162995108E+03 -7.51081863431912E-29 -1.88222786938753E+00
 N4       -9.39360774795208E-29 -1.41417270686693E+00 -7.57306469012171E-29  1.89178872262493E+03  2.22471101223969E-28 -1.42760592478848E+00
 N18      -2.71531470255312E-28  1.00404727963044E+00 -2.33502827945419E-28  1.89236261703530E+03  1.34112902049383E-28  8.42724817035331E-01
 N19      -2.16529992531524E-28 -1.16782736649049E+00  1.26217744835362E-28  1.89055234370589E+03 -4.01998586919970E-28  1.21271705270581E+00
 N28       5.94688648227891E-30 -2.95211518986143E-02 -2.98133955391144E-30 -1.90918069063462E-01  1.13244680729969E-30  3.80852712566799E-02
 N29       3.72811888984759E-31  1.49081797337920E-02  7.60742328032958E-31 -2.07091985222164E-01 -2.75806408804620E-30  5.54305380630349E-02
 N41      -1.05487997878950E-30 -3.76463674415885E-02  2.42513098597241E-30 -1.82708751064641E-01 -6.38888740451578E-30 -4.62279527412479E-02
 N42      -5.92595804354990E-30  1.60937993366067E-03  1.75490736532565E-30 -2.43466938678208E-01 -3.15406337109057E-30 -4.57208951446146E-02
 N43       3.52011845585377E-30  4.93271368816224E-02 -4.07603813430115E-30 -2.13844888113112E-01  6.80382901103401E-31 -1.95934724407438E-02
 N44      -1.18069135240659E-30  4.87615324993899E-02  2.96593211435634E-31 -1.95620082961969E-01 -1.89326135770557E-30  6.70182619754678E-03
 N45       2.83507721169738E-30 -1.60623959635608E-02  4.24166810951845E-30 -1.97454307934021E-01  5.05075127915553E-30  4.68627017042871E-02
 N46       2.01091160318332E-31 -1.03253927844771E-02 -1.31733608196087E-31 -1.92090187749963E-01  3.36459961284450E-30  6.45306688201870E-02
 N47       2.11651446902681E-30 -3.61826996866562E-02  1.41374263231991E-30 -2.40954056080795E-01 -2.64838753645427E-30 -1.15644115139227E-02
 N48       2.51189412996705E-30 -3.80579768916858E-02  1.61123299147436E-30 -2.36265221778300E-01 -5.67715999356747E-31  6.51934298181565E-03
 N64      -7.05912386469550E-29  2.44135195062210E-03 -4.62798397729660E-29  1.89185402048335E+03  1.33340604141684E-28  1.53162773430401E-01
 N65      -2.29694108887399E-29  4.75708839682295E-01  1.13595970351826E-28  1.89115851176168E+03  2.06767838829414E-30 -7.29272615009708E-01
 N110     -1.07096085184848E-28  1.21984059662616E+00  1.59875810124792E-28  1.89152027946997E+03  1.54088775827897E-28 -1.00664969238275E+00
 N111     -8.41122940191904E-29  1.78569615039725E+00 -1.07285083110058E-28  1.89127164206962E+03  2.24710957749292E-28  3.96637485180586E-02
 N121      2.13349126635374E-28 -8.63543174930813E-01  2.83989925879564E-28  1.89046494425237E+03 -2.35360965155764E-28  1.49092719723598E+00
 N122      9.62090599998866E-29 -2.80465765152039E-01  1.26217744835362E-28  1.89008284377592E+03 -1.03205193115868E-28  2.00134906594000E+00
 N123     -4.65876950890288E-30 -3.26848968976737E-01 -2.88497702480827E-29  1.89218406003067E+03  1.38094899775828E-28 -2.67696892526599E-01
 N124     -9.88233173063978E-29 -1.42059964748669E+00  6.94197596594490E-29  1.89118164371504E+03 -1.74586705016670E-28  9.85349571638776E-01
 N248     -1.07675372813288E-30 -3.30571398817248E-02 -3.34341438345624E-32 -2.69625273879328E-01 -2.12663486547375E-30 -2.46166103652138E-03
 N249     -5.04252903977756E-31  1.33467390787622E-03 -2.19567865536726E-30 -2.87905863636359E-01  2.00708566927457E-30 -5.67689033697777E-03
 N250     -2.14937220954230E-31 -8.81802738595193E-03  7.25360243626073E-31 -2.47041825026901E-01 -2.67573574166457E-31  1.72984311204341E-02
 N251      3.35013708266837E-30 -1.70853040963925E-02  6.36584044284794E-31 -2.68080134931049E-01  1.20402544816119E-30  5.37055813030138E-03
 N302      1.22693293037133E-29 -2.06048257894977E-01 -1.70393955527739E-28  1.89101443548396E+03  1.59005931766577E-28 -2.44530429723302E-01
 N303      2.86482079227601E-32  3.77460424279360E-01  1.05181454029468E-28  1.89172591480507E+03  1.50528726424530E-28 -7.04241982255277E-01
 N304     -7.78990724904615E-29 -1.16879237543337E-03 -1.83015730011275E-28  1.89283227689903E+03  9.78050540706760E-29  1.68938784373923E-01
 N305      2.17026222138337E-28 -2.90168746183433E-01  3.78653234506086E-29  1.89271806306607E+03  4.41994319048490E-29  3.64943213526872E-01
 

 ------>
 CHAMP AUX NOEUDS DE NOM SYMBOLIQUE  PRAC_NOEU                                   
 NUMERO D'ORDRE: 1 FREQ:   9.20000000000000E+01                                  
 NOEUD        PRES_R       PRES_I  
 N1       -7.67621699249674E-15 -1.25362137031530E+02
 N2       -7.67668740560104E-15 -1.25369819460531E+02
 N3        4.61308158126840E-14  7.53373394595112E+02
 N4        4.61331735348602E-14  7.53411899120301E+02
 N18       4.61358330949282E-14  7.53455333032345E+02
 N19       4.61313305078961E-14  7.53381800205815E+02
 N28      -7.67633668130017E-15 -1.25364091698027E+02
 N29      -7.67688583533478E-15 -1.25373060064008E+02
 N41      -7.67651859081912E-15 -1.25367062505921E+02
 N42      -7.67709996755143E-15 -1.25376557108491E+02
 N43      -7.67714869180631E-15 -1.25377352835960E+02
 N44      -7.67683231590293E-15 -1.25372186025356E+02
 N45      -7.67666767659124E-15 -1.25369497261350E+02
 N46      -7.67652647479158E-15 -1.25367191260962E+02
 N47      -7.67665424073179E-15 -1.25369277837113E+02
 N48      -7.67681114664285E-15 -1.25371840305103E+02
 N64       4.61358122452209E-14  7.53454992530784E+02
 N65       4.61344328001185E-14  7.53432464482643E+02
 N110      4.61348595469867E-14  7.53439433787891E+02
 N111      4.61338635720022E-14  7.53423168282029E+02
 N121      4.61336349687861E-14  7.53419434908190E+02
 N122      4.61330636902262E-14  7.53410105221290E+02
 N123      4.61359438220546E-14  7.53457141343549E+02
 N124      4.61338025316536E-14  7.53422171417485E+02
 N248     -7.67736978852865E-15 -1.25380963619452E+02
 N249     -7.67773048954266E-15 -1.25386854314047E+02
 N250     -7.67735173033235E-15 -1.25380668706726E+02
 N251     -7.67730350869057E-15 -1.25379881187552E+02
 N302      4.61334599411807E-14  7.53416576490472E+02
 N303      4.61366964924573E-14  7.53469433384050E+02
 N304      4.61374896249111E-14  7.53482386219991E+02
 N305      4.61371088900877E-14  7.53476168348460E+02
 
   
   !----------------------------------------------------------------------------------------------------------------!
   ! <EXCEPTION> <MATRICE0_12>                                                                                      !
   !                                                                                                                !
   !  Une des charges renseignées pour l'assemblage des vecteurs est déjà présente dans le mot-clé                  !
   !  CHARGE définissant les conditions de Dirichlet. Il est interdit de renseigner plus d'une fois la même charge. !
   !----------------------------------------------------------------------------------------------------------------!
   

 --------------------------------------------------------------------------------
 ASTER 11.03.00 CONCEPT Pr_7 CALCULE LE 24/06/2016 A 15:53:20 DE TYPE ACOU_HARMO 

                    ENTITES TOPOLOGIQUES SELECTIONNEES 
 GROUP_MA : ENTREE SORTIE                                                        


 ======>

 ------>
 CHAMP AUX NOEUDS DE NOM SYMBOLIQUE  INTE_NOEU                                   
 NUMERO D'ORDRE: 1 FREQ:   1.04000000000000E+02                                  
 NOEUD        INTX_R       INTX_I       INTY_R       INTY_I       INTZ_R       INTZ_I  
 N1       -7.68291973414956E-30 -2.52060864921370E-02  2.93203574733513E-30 -1.72327893328295E-01 -1.77994445460268E-30 -3.45131578250092E-02
 N2       -5.19924047786778E-30  2.93996851032250E-02 -3.08456939893060E-30 -1.95135242979753E-01  4.64996525772854E-30 -3.64112059592987E-02
 N3       -4.68386162474976E-30  2.38077477839157E+00  3.02922587604869E-28  2.24576346244324E+03 -2.58204035040152E-28 -2.99784961611861E+00
 N4       -4.89093761237027E-29 -2.25251337275370E+00  3.53409685539013E-28  2.24673721030723E+03 -1.22051573179663E-28 -2.27186688865838E+00
 N18      -6.82642016928167E-29  1.59880776665031E+00  2.65057264154260E-28  2.24764496417646E+03  2.29956035359836E-31  1.34342455705984E+00
 N19       3.68398042738213E-28 -1.86077237805518E+00  6.05845175209737E-28  2.24477657277459E+03 -5.67930547952552E-28  1.93199904780893E+00
 N28       8.37529154915677E-30 -2.76647249989045E-02 -9.01335213973226E-31 -1.78926241216598E-01 -6.21536111652649E-30  3.56935355132698E-02
 N29       1.71648506293512E-30  1.39769738135422E-02  5.59944872031145E-30 -1.94092810854761E-01 -2.54908865201803E-30  5.19445867539949E-02
 N41      -3.31356246931824E-31 -3.52773955903651E-02 -2.31650853710897E-30 -1.71234828225603E-01  1.18406172980927E-30 -4.33242605055526E-02
 N42      -7.75764581599179E-31  1.51206157504629E-03  2.05432527401305E-33 -2.28183787809425E-01  1.45414130567718E-30 -4.28490442149193E-02
 N43      -1.76800368894748E-31  4.62316757067252E-02 -2.06459690038312E-31 -2.00424552175976E-01  2.38095496787303E-30 -1.83622031241477E-02
 N44       7.73588280762021E-30  4.57018094551857E-02  8.88470001944720E-30 -1.83343238863955E-01 -4.80997392492066E-30  6.28194344843750E-03
 N45       3.13240468392431E-31 -1.50501794848021E-02 -3.69778549322349E-31 -1.85055472087651E-01 -6.66468057255203E-31  4.39193510783103E-02
 N46      -4.09794558741855E-30 -9.67323500370988E-03 -5.96961245562268E-30 -1.80027438994413E-01 -1.96926336813595E-30  6.04758040592756E-02
 N47      -8.41906518546420E-33 -3.39056038434630E-02 -2.48499989395793E-31 -2.25820036795149E-01  2.08901494074945E-30 -1.08391708674605E-02
 N48       9.18379693981053E-31 -3.56649967723838E-02  3.65040761659157E-30 -2.21426867024616E-01  1.02907251753471E-30  6.11132829571130E-03
 N64      -1.53159193641406E-28  4.15179157921397E-03  2.56642747831902E-28  2.24683358268292E+03  2.47688457543798E-28  2.43358744848515E-01
 N65      -3.05637378454477E-28  7.58331886038010E-01  2.33502827945419E-28  2.24573166746005E+03  7.64147372174635E-29 -1.16203261370424E+00
 N110      7.37913638425488E-30  1.94388840188418E+00  6.22674207854452E-28  2.24630709961567E+03  3.47945180310139E-28 -1.60255454858361E+00
 N111      4.39481805869612E-29  2.84427465622604E+00  5.55358077275592E-28  2.24591336308420E+03  2.33257079284516E-29  6.39453530567992E-02
 N121      1.16222938795970E-28 -1.37659592217087E+00  3.02922587604869E-28  2.24462985269852E+03 -1.46290557087743E-28  2.37574531512013E+00
 N122      3.04135153097855E-29 -4.47206170413476E-01  2.01948391736579E-28  2.24402262203849E+03  1.51054537398180E-28  3.18843982116703E+00
 N123      1.15696664682024E-28 -5.22894548210067E-01  3.67834570663055E-28  2.24735941048006E+03 -2.47437536385329E-28 -4.23941496957081E-01
 N124     -4.24752293654939E-29 -2.26400600540720E+00  3.47098798297245E-28  2.24577142353227E+03 -1.47441492822509E-28  1.57057865913230E+00
 N248     -1.95732260248075E-30 -3.09748157753870E-02  4.24166810951845E-31 -2.52702509386742E-01  2.06631218173984E-30 -2.30617672923021E-03
 N249     -1.30003234215284E-30  1.25341690462631E-03  1.08172077553368E-30 -2.69840562234731E-01  1.18492099086138E-30 -5.31855251959045E-03
 N250     -1.64590660879456E-30 -8.26081101630200E-03  1.95674482349743E-30 -2.31539832384156E-01 -2.18083709000873E-30  1.62101921678446E-02
 N251     -2.45775343058249E-30 -1.60061043281813E-02  7.13492846730658E-31 -2.51251879262400E-01  2.37108909080635E-30  5.03292921546953E-03
 N302     -2.77013437249016E-28 -3.27798508735806E-01  2.52435489670724E-28  2.24550339198694E+03  1.60683416748138E-28 -3.89249873095347E-01
 N303     -2.09070416473258E-28  6.02346990196924E-01  4.85938317616143E-28  2.24662826180537E+03  2.91085886364329E-28 -1.12143369843327E+00
 N304     -2.54347215881771E-29 -2.18128519096997E-03  2.93456256742216E-28  2.24838924458363E+03 -6.80574049650381E-29  2.70707300640615E-01
 N305      1.13342628024284E-28 -4.63422688764375E-01  2.81285259918806E-28  2.24820901437486E+03 -7.93062734093966E-29  5.83802331044573E-01
 

 ------>
 CHAMP AUX NOEUDS DE NOM SYMBOLIQUE  PRAC_NOEU                                   
 NUMERO D'ORDRE: 1 FREQ:   1.04000000000000E+02                                  
 NOEUD        PRES_R       PRES_I  
 N1       -6.98943473404244E-15 -1.14146131585186E+02
 N2       -6.98998192106084E-15 -1.14155067827354E+02
 N3        5.47036739844069E-14  8.93378793338514E+02
 N4        5.47072550544482E-14  8.93437276650500E+02
 N18       5.47112880296947E-14  8.93503140134556E+02
 N19       5.47044479664685E-14  8.93391433424819E+02
 N28      -6.98957398953034E-15 -1.14148405799890E+02
 N29      -6.99021280240066E-15 -1.14158838405777E+02
 N41      -6.98978560822237E-15 -1.14151861795401E+02
 N42      -6.99046198879975E-15 -1.14162907928504E+02
 N43      -6.99051863149134E-15 -1.14163832973858E+02
 N44      -6.99015050129095E-15 -1.14157820951442E+02
 N45      -6.98995908081802E-15 -1.14154694817882E+02
 N46      -6.98979472654731E-15 -1.14152010708948E+02
 N47      -6.98994350658854E-15 -1.14154440471412E+02
 N48      -6.99012604895619E-15 -1.14157421614510E+02
 N64       5.47112616044540E-14  8.93502708577625E+02
 N65       5.47091663880322E-14  8.93468491096743E+02
 N110      5.47098131685240E-14  8.93479053823765E+02
 N111      5.47082986370173E-14  8.93454319647220E+02
 N121      5.47079482465539E-14  8.93448597336696E+02
 N122      5.47070824607594E-14  8.93434457981657E+02
 N123      5.47114576079716E-14  8.93505909557984E+02
 N124      5.47082021795315E-14  8.93452744376932E+02
 N248     -6.99077595124286E-15 -1.14168035324310E+02
 N249     -6.99119557800110E-15 -1.14174888349338E+02
 N250     -6.99075489102507E-15 -1.14167691384853E+02
 N251     -6.99069887348010E-15 -1.14166776548918E+02
 N302      5.47076915841766E-14  8.93444405721979E+02
 N303      5.47126035852450E-14  8.93524624787131E+02
 N304      5.47138037003392E-14  8.93544224153985E+02
 N305      5.47132255195509E-14  8.93534781745142E+02
 
   
   !----------------------------------------------------------------------------------------------------------------!
   ! <EXCEPTION> <MATRICE0_12>                                                                                      !
   !                                                                                                                !
   !  Une des charges renseignées pour l'assemblage des vecteurs est déjà présente dans le mot-clé                  !
   !  CHARGE définissant les conditions de Dirichlet. Il est interdit de renseigner plus d'une fois la même charge. !
   !----------------------------------------------------------------------------------------------------------------!
   

 --------------------------------------------------------------------------------
 ASTER 11.03.00 CONCEPT Pr_8 CALCULE LE 24/06/2016 A 15:53:20 DE TYPE ACOU_HARMO 

                    ENTITES TOPOLOGIQUES SELECTIONNEES 
 GROUP_MA : ENTREE SORTIE                                                        


 ======>

 ------>
 CHAMP AUX NOEUDS DE NOM SYMBOLIQUE  INTE_NOEU                                   
 NUMERO D'ORDRE: 1 FREQ:   1.16000000000000E+02                                  
 NOEUD        INTX_R       INTX_I       INTY_R       INTY_I       INTZ_R       INTZ_I  
 N1       -1.53130689878229E-30 -2.41120785025592E-02  4.16925314360949E-30 -1.64870858658556E-01  6.79891788967582E-30 -3.30214372496636E-02
 N2        1.16441724437652E-30  2.81308057991654E-02 -4.16771239965398E-30 -1.86700842146945E-01 -6.91293294238354E-30 -3.48357691096248E-02
 N3       -3.15211561394015E-28  3.58039370325298E+00  2.52435489670724E-28  2.60965280733368E+03 -2.42574728355461E-29 -4.50746780927577E+00
 N4        3.53532945055454E-28 -3.38693144536721E+00  3.53409685539013E-28  2.61110629297486E+03  2.54185774804183E-28 -3.41373769932947E+00
 N18       1.75201076668929E-28  2.40351010567962E+00 -3.78653234506086E-28  2.61246367489202E+03  7.07001178864777E-29  2.02123883411906E+00
 N19       3.41552120057410E-28 -2.79861817563770E+00  1.00974195868290E-28  2.60816821690129E+03 -4.31038528993418E-28  2.90533850334010E+00
 N28       2.23407873548919E-31 -2.64654602917787E-02 -3.66697061411330E-31 -1.71184818900348E-01 -4.25322368918477E-30  3.41497063865936E-02
 N29      -5.46105861674507E-30  1.33778267772978E-02 -4.24436441144059E-30 -1.85704380521231E-01 -1.58146533677143E-30  4.96925550115394E-02
 N41      -1.24227296237838E-30 -3.37464105597960E-02  7.12401486428839E-30 -1.63828613519820E-01  3.07262863327540E-30 -4.14497370438850E-02
 N42       1.35463492521717E-30  1.45068876342474E-03  3.20397705548261E-30 -2.18321217062473E-01 -2.77504035803516E-30 -4.09950728527583E-02
 N43      -6.52418398310898E-30  4.42344697147082E-02 -6.25734638931413E-30 -1.91765389352979E-01 -7.17432978408550E-31 -1.75671232451301E-02
 N44      -2.60847951667807E-30  4.37277560417965E-02 -3.48323689741875E-30 -1.75421792185582E-01 -5.32134443634193E-31  6.01129792938196E-03
 N45       2.04687834489475E-30 -1.43954576428619E-02 -8.57424011241197E-31 -1.77052665936646E-01 -8.36912857333473E-31  4.20193098337179E-02
 N46       2.54730716681947E-30 -9.25084024673590E-03  1.14785424685479E-31 -1.72241272183809E-01  3.90665259569229E-30  5.78575362732267E-02
 N47      -2.39481134599077E-30 -3.24339077538847E-02  3.44290242172630E-30 -2.16050391366782E-01  8.61771110258529E-31 -1.03714212749022E-02
 N48      -1.52254391753533E-30 -3.41192234366917E-02 -7.51112678311022E-32 -2.11848534616245E-01 -3.15724918020691E-30  5.84850043873647E-03
 N64      -5.90628787905122E-29  6.53645340796205E-03  4.79627430374375E-28  2.61124223132154E+03  9.24240940778472E-29  3.65168308172922E-01
 N65      -1.01997249854748E-30  1.14096867538426E+00  3.02922587604869E-28  2.60959223257695E+03  9.95844448204197E-29 -1.74782387054608E+00
 N110     -2.69757560381202E-28  2.92393699520052E+00  3.95482267150801E-28  2.61045651372939E+03  1.88784275380703E-28 -2.40877714378215E+00
 N111      4.15384570405439E-29  4.27670761046845E+00 -1.89326617253043E-28  2.60986717165179E+03  1.20463066161533E-28  9.69205674710672E-02
 N121      1.57698225334338E-28 -2.07117855191067E+00  2.52435489670724E-29  2.60793883266893E+03 -7.48123635037333E-29  3.57328118666908E+00
 N122     -7.29850411724987E-30 -6.72991199500439E-01 -1.70393955527739E-28  2.60702745073024E+03  3.78345085714984E-28  4.79489402431809E+00
 N123      1.38341198702430E-28 -7.88867214742211E-01  2.45223047108703E-28  2.61203303482181E+03  8.67509280961406E-29 -6.34723557102416E-01
 N124     -1.11796381411790E-29 -3.40565257772035E+00 -9.46633086265214E-29  2.60965533761269E+03  4.57909103577509E-30  2.36272978961020E+00
 N248      2.18992679151412E-31 -2.96282587690586E-02  3.48839838966971E-30 -2.41782793367788E-01  3.40206948269222E-31 -2.20546805027605E-03
 N249     -7.60771957724410E-31  1.20195323902982E-03 -4.38163877193822E-31 -2.58185461539606E-01  4.23115697647581E-31 -5.08654324873589E-03
 N250      7.53888080927309E-31 -7.89980721691538E-03 -5.88564191004739E-31 -2.21538182869432E-01 -1.84373400568928E-31  1.55070180779189E-02
 N251      1.77907176759663E-30 -1.53070887383952E-02 -1.07338495567182E-31 -2.40392196975635E-01 -1.02560797519790E-30  4.81485810154985E-03
 N302      1.42138252127645E-28 -4.92431202340075E-01  4.13363114335810E-28  2.60925042871278E+03  1.77771807958697E-28 -5.85080175153244E-01
 N303     -5.53271203785519E-29  9.07005276760723E-01  2.75575409557207E-28  2.61093197964002E+03  1.29778147325886E-28 -1.68597880792600E+00
 N304     -4.17595537981596E-29 -3.66015574337997E-03 -9.46633086265214E-29  2.61357835326117E+03  1.90566916137228E-29  4.08801054645097E-01
 N305      6.44975229341540E-29 -6.98239079014368E-01  1.80311064050517E-29  2.61330930932107E+03  1.02884498266842E-28  8.80614123046794E-01
 

 ------>
 CHAMP AUX NOEUDS DE NOM SYMBOLIQUE  PRAC_NOEU                                   
 NUMERO D'ORDRE: 1 FREQ:   1.16000000000000E+02                                  
 NOEUD        PRES_R       PRES_I  
 N1       -6.47336200699228E-15 -1.05718024356073E+02
 N2       -6.47399227834019E-15 -1.05728317468313E+02
 N3        6.34647242018824E-14  1.03645760142547E+03
 N4        6.34699022423582E-14  1.03654216524386E+03
 N18       6.34757268706956E-14  1.03663728864338E+03
 N19       6.34658352118804E-14  1.03647574559567E+03
 N28      -6.47352244928918E-15 -1.05720644577626E+02
 N29      -6.47425830282499E-15 -1.05732661977849E+02
 N41      -6.47376622666548E-15 -1.05724625764308E+02
 N42      -6.47454546352570E-15 -1.05737351667985E+02
 N43      -6.47461066327542E-15 -1.05738416460703E+02
 N44      -6.47418648118438E-15 -1.05731489041445E+02
 N45      -6.47396611052597E-15 -1.05727890115476E+02
 N46      -6.47377666166859E-15 -1.05724796180841E+02
 N47      -6.47394824200367E-15 -1.05727598300362E+02
 N48      -6.47415853836010E-15 -1.05731032700494E+02
 N64       6.34756940128087E-14  1.03663675203337E+03
 N65       6.34726644543542E-14  1.03658727558911E+03
 N110      6.34735982049461E-14  1.03660252489352E+03
 N111      6.34714065472806E-14  1.03656673240761E+03
 N121      6.34708964933120E-14  1.03655840259417E+03
 N122      6.34696467870139E-14  1.03653799334149E+03
 N123      6.34759732707602E-14  1.03664131266182E+03
 N124      6.34712629144156E-14  1.03656438670491E+03
 N248     -6.47490723386671E-15 -1.05743259826015E+02
 N249     -6.47539065060561E-15 -1.05751154620485E+02
 N250     -6.47488290490772E-15 -1.05742862503962E+02
 N251     -6.47481847761190E-15 -1.05741810326373E+02
 N302      6.34705352152842E-14  1.03655250247622E+03
 N303      6.34776333482169E-14  1.03666842378411E+03
 N304      6.34793638127667E-14  1.03669668441486E+03
 N305      6.34785278818895E-14  1.03668303262762E+03
 
   
   !----------------------------------------------------------------------------------------------------------------!
   ! <EXCEPTION> <MATRICE0_12>                                                                                      !
   !                                                                                                                !
   !  Une des charges renseignées pour l'assemblage des vecteurs est déjà présente dans le mot-clé                  !
   !  CHARGE définissant les conditions de Dirichlet. Il est interdit de renseigner plus d'une fois la même charge. !
   !----------------------------------------------------------------------------------------------------------------!
   

 --------------------------------------------------------------------------------
 ASTER 11.03.00 CONCEPT Pr_9 CALCULE LE 24/06/2016 A 15:53:20 DE TYPE ACOU_HARMO 

                    ENTITES TOPOLOGIQUES SELECTIONNEES 
 GROUP_MA : ENTREE SORTIE                                                        


 ======>

 ------>
 CHAMP AUX NOEUDS DE NOM SYMBOLIQUE  INTE_NOEU                                   
 NUMERO D'ORDRE: 1 FREQ:   1.28000000000000E+02                                  
 NOEUD        INTX_R       INTX_I       INTY_R       INTY_I       INTZ_R       INTZ_I  
 N1        3.60822975080949E-30 -2.34846296545974E-02 -2.93357649129064E-30 -1.60604794415780E-01  8.04191307578334E-30 -3.21688852101410E-02
 N2        6.11290164348509E-31  2.74064967201874E-02  5.67455998814255E-30 -1.81880248982468E-01  1.07081704907930E-31 -3.39345601029612E-02
 N3        2.11390070695943E-28  5.16737134470036E+00 -5.17492753824984E-28  2.98785777613241E+03 -1.90485256707586E-28 -6.50430553399957E+00
 N4       -5.82080740439954E-28 -4.88747078375898E+00 -1.51461293802434E-28  2.98994223577881E+03 -5.45793138799788E-28 -4.92346370152037E+00
 N18       1.56521096952328E-28  3.46779386081237E+00  5.04870979341448E-29  2.99189162905246E+03  3.81718544605572E-28  2.91813955206607E+00
 N19      -3.44239177515819E-28 -4.03935055809007E+00 -1.51461293802434E-28  2.98571446913054E+03  2.05103835357463E-28  4.19281858619137E+00
 N28      -1.79150003426901E-30 -2.57783419384577E-02  1.37280286435922E-30 -1.66756612306789E-01 -1.21718772485273E-30  3.32668501772164E-02
 N29       6.45343013177705E-31  1.30377977072872E-02  4.30021637982782E-30 -1.80910505829856E-01  2.29643071743873E-31  4.84021438994847E-02
 N41       1.66852940731988E-30 -3.28684093307110E-02 -3.15428806291741E-30 -1.59593319718134E-01  4.68135791582205E-30 -4.03774528245882E-02
 N42       1.40111403454171E-31  1.41753660868168E-03  1.76158392246619E-30 -2.12684513800637E-01  1.72640360214872E-30 -3.99345401467981E-02
 N43      -1.78331483200536E-30  4.30935108081773E-02 -4.85334345985583E-31 -1.86818200542673E-01  2.65662776528775E-30 -1.71120236360194E-02
 N44      -1.30154345641689E-30  4.26001504844332E-02 -2.69745748010876E-30 -1.70895949778418E-01 -6.02599405474461E-31  5.85704177284139E-03
 N45       2.34290581440922E-30 -1.40192280960770E-02 -1.73064064802637E-30 -1.72476778704128E-01 -4.60566886900764E-30  4.09325435217675E-02
 N46       3.48280356318127E-31 -9.00735489713715E-03  4.27903115043956E-30 -1.67788869063260E-01  7.94253509065296E-31  5.63590194951345E-02
 N47       5.48835007580523E-31 -3.15897907016017E-02 -1.13574840149007E-31 -2.10462339304507E-01  8.31300147209831E-31 -1.01044466578455E-02
 N48       1.18675803173141E-30 -3.32337190148927E-02 -7.26845961011743E-31 -2.06370514763841E-01 -1.96182446372575E-30  5.69892613554867E-03
 N64       1.65241707740514E-28  9.77441849252562E-03  5.46943560953235E-29  2.99012738059158E+03 -2.15806870035071E-30  5.25971004537638E-01
 N65       3.88064098586339E-28  1.64734903698575E+00  1.76704842769507E-28  2.98775472670664E+03  2.33539805800352E-28 -2.52293341727116E+00
 N110     -3.82153804773004E-28  4.22064738234328E+00 -4.20725816117873E-28  2.98900072587570E+03 -1.58495303540655E-28 -3.47506898406704E+00
 N111     -4.31654826575622E-29  6.17143634131371E+00 -2.52435489670724E-29  2.98815357149643E+03 -2.88157638279218E-29  1.40644526671161E-01
 N121      2.98737927021704E-28 -2.99034211536583E+00  4.03896783473158E-28  2.98537274276866E+03  3.09122541281840E-28  5.15756432550301E+00
 N122      3.83743852535090E-28 -9.71844591923092E-01  4.16518557956694E-28  2.98405967669177E+03  2.19254027844865E-28  6.91993088868036E+00
 N123     -1.51160188412272E-28 -1.14153382975170E+00 -4.68808766531344E-29  2.99126872383504E+03 -2.39838807303034E-28 -9.12769589172129E-01
 N124     -3.18712131660933E-28 -4.91621428171426E+00 -3.34477023813709E-28  2.98784975301896E+03  1.89224928151979E-28  3.41079790816476E+00
 N248      1.11534454939354E-30 -2.88549188057288E-02  2.53606455076911E-31 -2.35543165157802E-01  5.82796181284576E-31 -2.14741012997360E-03
 N249      4.86371385186407E-32  1.17385107635560E-03 -2.40119019527910E-31 -2.51528127849613E-01  2.46374217764594E-30 -4.95291268149532E-03
 N250      4.01351763348148E-31 -7.69157398447667E-03  1.39437327973636E-30 -2.15824880623065E-01 -8.38611802677272E-31  1.51039152381556E-02
 N251      1.32547514215293E-30 -1.49041067737532E-02 -2.72198098806729E-31 -2.34185594830645E-01 -2.67547805539057E-30  4.68996865169839E-03
 N302      4.39513391120700E-28 -7.10054758225451E-01  1.60927624665086E-28  2.98726327219702E+03 -1.78307216483237E-28 -8.44138535572647E-01
 N303      1.21623455002442E-28  1.31042341748103E+00 -6.73161305788597E-29  2.98967776154775E+03 -1.38047191739777E-28 -2.43277688030613E+00
 N304      1.97477116666503E-28 -5.75532714303967E-03  1.13595970351826E-28  2.99349473282169E+03  3.96150308050844E-29  5.91901288292682E-01
 N305      1.81220543196826E-28 -1.00930363331811E+00  1.98342170455569E-28  2.99310885423840E+03  6.90913610906461E-29  1.27399815468280E+00
 

 ------>
 CHAMP AUX NOEUDS DE NOM SYMBOLIQUE  PRAC_NOEU                                   
 NUMERO D'ORDRE: 1 FREQ:   1.28000000000000E+02                                  
 NOEUD        PRES_R       PRES_I  
 N1       -6.08230045562914E-15 -9.93315045589287E+01
 N2       -6.08302124474429E-15 -9.93432759384913E+01
 N3        7.25275481666521E-14  1.18446474881000E+03
 N4        7.25347644452443E-14  1.18458259958293E+03
 N18       7.25428743632595E-14  1.18471504459517E+03
 N19       7.25290876327537E-14  1.18448989019938E+03
 N28      -6.08248399386274E-15 -9.93345019657521E+01
 N29      -6.08332558436359E-15 -9.93482461816588E+01
[...]
 * ASSEMBLAGE               :       0.07 :       0.00 :       0.07 :       0.06 *
 * DYNA_VIBRA               :       0.03 :       0.00 :       0.03 :       0.03 *
 * CALC_CHAMP               :       0.06 :       0.00 :       0.06 :       0.07 *
 * IMPR_RESU                :       0.00 :       0.00 :       0.00 :       0.00 *
 * DETRUIRE                 :       0.02 :       0.00 :       0.02 :       0.02 *
 * ASSEMBLAGE               :       0.06 :       0.00 :       0.06 :       0.06 *
 * DYNA_VIBRA               :       0.03 :       0.00 :       0.03 :       0.03 *
 * CALC_CHAMP               :       0.06 :       0.00 :       0.06 :       0.06 *
 * IMPR_RESU                :       0.01 :       0.00 :       0.01 :       0.01 *
 * DETRUIRE                 :       0.02 :       0.00 :       0.02 :       0.02 *
 * ASSEMBLAGE               :       0.06 :       0.00 :       0.06 :       0.06 *
 * DYNA_VIBRA               :       0.03 :       0.00 :       0.03 :       0.03 *
 * CALC_CHAMP               :       0.06 :       0.00 :       0.06 :       0.06 *
 * IMPR_RESU                :       0.00 :       0.00 :       0.00 :       0.01 *
 * DETRUIRE                 :       0.01 :       0.00 :       0.01 :       0.02 *
 * ASSEMBLAGE               :       0.06 :       0.01 :       0.07 :       0.06 *
 * DYNA_VIBRA               :       0.03 :       0.00 :       0.03 :       0.03 *
 * CALC_CHAMP               :       0.06 :       0.00 :       0.06 :       0.06 *
 * IMPR_RESU                :       0.00 :       0.00 :       0.00 :       0.01 *
 * DETRUIRE                 :       0.02 :       0.00 :       0.02 :       0.01 *
 * ASSEMBLAGE               :       0.06 :       0.00 :       0.06 :       0.07 *
 * DYNA_VIBRA               :       0.03 :       0.01 :       0.04 :       0.02 *
 * CALC_CHAMP               :       0.06 :       0.00 :       0.06 :       0.07 *
 * IMPR_RESU                :       0.00 :       0.00 :       0.00 :       0.01 *
 * DETRUIRE                 :       0.02 :       0.00 :       0.02 :       0.01 *
 * ASSEMBLAGE               :       0.06 :       0.00 :       0.06 :       0.06 *
 * DYNA_VIBRA               :       0.03 :       0.00 :       0.03 :       0.03 *
 * CALC_CHAMP               :       0.06 :       0.01 :       0.07 :       0.07 *
 * IMPR_RESU                :       0.00 :       0.00 :       0.00 :       0.00 *
 * DETRUIRE                 :       0.02 :       0.00 :       0.02 :       0.02 *
 * ASSEMBLAGE               :       0.06 :       0.00 :       0.06 :       0.06 *
 * DYNA_VIBRA               :       0.03 :       0.00 :       0.03 :       0.03 *
 * CALC_CHAMP               :       0.07 :       0.00 :       0.07 :       0.07 *
 * IMPR_RESU                :       0.00 :       0.00 :       0.00 :       0.00 *
 * DETRUIRE                 :       0.02 :       0.00 :       0.02 :       0.02 *
 * ASSEMBLAGE               :       0.06 :       0.00 :       0.06 :       0.06 *
 * DYNA_VIBRA               :       0.03 :       0.00 :       0.03 :       0.03 *
 * CALC_CHAMP               :       0.06 :       0.00 :       0.06 :       0.06 *
 * IMPR_RESU                :       0.01 :       0.00 :       0.01 :       0.01 *
 * DETRUIRE                 :       0.01 :       0.01 :       0.02 :       0.01 *
 * ASSEMBLAGE               :       0.06 :       0.00 :       0.06 :       0.06 *
 * DYNA_VIBRA               :       0.03 :       0.00 :       0.03 :       0.03 *
 * CALC_CHAMP               :       0.06 :       0.00 :       0.06 :       0.06 *
 * IMPR_RESU                :       0.00 :       0.00 :       0.00 :       0.01 *
 * DETRUIRE                 :       0.02 :       0.00 :       0.02 :       0.01 *
 * ASSEMBLAGE               :       0.06 :       0.00 :       0.06 :       0.07 *
 * DYNA_VIBRA               :       0.03 :       0.01 :       0.04 :       0.03 *
 * CALC_CHAMP               :       0.06 :       0.00 :       0.06 :       0.06 *
 * IMPR_RESU                :       0.00 :       0.00 :       0.00 :       0.01 *
 * DETRUIRE                 :       0.02 :       0.00 :       0.02 :       0.01 *
 * ASSEMBLAGE               :       0.06 :       0.00 :       0.06 :       0.07 *
 * DYNA_VIBRA               :       0.03 :       0.00 :       0.03 :       0.03 *
 * CALC_CHAMP               :       0.05 :       0.01 :       0.06 :       0.06 *
 * IMPR_RESU                :       0.01 :       0.00 :       0.01 :       0.01 *
 * DETRUIRE                 :       0.01 :       0.00 :       0.01 :       0.01 *
 * ASSEMBLAGE               :       0.05 :       0.01 :       0.06 :       0.06 *
 * DYNA_VIBRA               :       0.03 :       0.00 :       0.03 :       0.04 *
 * CALC_CHAMP               :       0.06 :       0.00 :       0.06 :       0.06 *
 * IMPR_RESU                :       0.01 :       0.00 :       0.01 :       0.00 *
 * DETRUIRE                 :       0.01 :       0.00 :       0.01 :       0.02 *
 * ASSEMBLAGE               :       0.07 :       0.00 :       0.07 :       0.06 *
 * DYNA_VIBRA               :       0.03 :       0.00 :       0.03 :       0.03 *
 * CALC_CHAMP               :       0.05 :       0.01 :       0.06 :       0.07 *
 * IMPR_RESU                :       0.01 :       0.00 :       0.01 :       0.00 *
 * DETRUIRE                 :       0.01 :       0.00 :       0.01 :       0.02 *
 * ASSEMBLAGE               :       0.07 :       0.00 :       0.07 :       0.06 *
 * DYNA_VIBRA               :       0.03 :       0.00 :       0.03 :       0.03 *
 * CALC_CHAMP               :       0.06 :       0.00 :       0.06 :       0.06 *
 * IMPR_RESU                :       0.01 :       0.00 :       0.01 :       0.01 *
 * DETRUIRE                 :       0.01 :       0.00 :       0.01 :       0.02 *
 * ASSEMBLAGE               :       0.06 :       0.00 :       0.06 :       0.06 *
 * DYNA_VIBRA               :       0.04 :       0.00 :       0.04 :       0.03 *
 * CALC_CHAMP               :       0.05 :       0.01 :       0.06 :       0.06 *
 * IMPR_RESU                :       0.01 :       0.00 :       0.01 :       0.01 *
 * DETRUIRE                 :       0.01 :       0.00 :       0.01 :       0.02 *
 * ASSEMBLAGE               :       0.07 :       0.00 :       0.07 :       0.06 *
 * DYNA_VIBRA               :       0.03 :       0.00 :       0.03 :       0.03 *
 * CALC_CHAMP               :       0.05 :       0.01 :       0.06 :       0.06 *
 * IMPR_RESU                :       0.01 :       0.00 :       0.01 :       0.01 *
 * DETRUIRE                 :       0.01 :       0.00 :       0.01 :       0.01 *
 * ASSEMBLAGE               :       0.06 :       0.00 :       0.06 :       0.06 *
 * DYNA_VIBRA               :       0.03 :       0.00 :       0.03 :       0.03 *
 * CALC_CHAMP               :       0.07 :       0.00 :       0.07 :       0.06 *
 * IMPR_RESU                :       0.00 :       0.00 :       0.00 :       0.01 *
 * DETRUIRE                 :       0.02 :       0.00 :       0.02 :       0.01 *
 * ASSEMBLAGE               :       0.06 :       0.00 :       0.06 :       0.07 *
 * DYNA_VIBRA               :       0.03 :       0.00 :       0.03 :       0.03 *
 * CALC_CHAMP               :       0.06 :       0.00 :       0.06 :       0.06 *
 * IMPR_RESU                :       0.01 :       0.00 :       0.01 :       0.01 *
 * DETRUIRE                 :       0.01 :       0.00 :       0.01 :       0.01 *
 * ASSEMBLAGE               :       0.06 :       0.01 :       0.07 :       0.07 *
 * DYNA_VIBRA               :       0.03 :       0.00 :       0.03 :       0.03 *
 * CALC_CHAMP               :       0.06 :       0.00 :       0.06 :       0.06 *
 * IMPR_RESU                :       0.01 :       0.00 :       0.01 :       0.01 *
 * DETRUIRE                 :       0.02 :       0.00 :       0.02 :       0.01 *
 * ASSEMBLAGE               :       0.06 :       0.00 :       0.06 :       0.07 *
 * DYNA_VIBRA               :       0.03 :       0.00 :       0.03 :       0.03 *
 * CALC_CHAMP               :       0.06 :       0.00 :       0.06 :       0.06 *
 * IMPR_RESU                :       0.01 :       0.00 :       0.01 :       0.01 *
 * DETRUIRE                 :       0.01 :       0.00 :       0.01 :       0.01 *
 * ASSEMBLAGE               :       0.06 :       0.01 :       0.07 :       0.07 *
 * DYNA_VIBRA               :       0.03 :       0.00 :       0.03 :       0.03 *
 * CALC_CHAMP               :       0.06 :       0.00 :       0.06 :       0.06 *
 * IMPR_RESU                :       0.01 :       0.00 :       0.01 :       0.01 *
 * DETRUIRE                 :       0.01 :       0.00 :       0.01 :       0.01 *
 * ASSEMBLAGE               :       0.06 :       0.01 :       0.07 :       0.07 *
 * DYNA_VIBRA               :       0.03 :       0.00 :       0.03 :       0.03 *
 * CALC_CHAMP               :       0.07 :       0.00 :       0.07 :       0.06 *
 * IMPR_RESU                :       0.00 :       0.00 :       0.00 :       0.01 *
 * DETRUIRE                 :       0.02 :       0.00 :       0.02 :       0.01 *
 * ASSEMBLAGE               :       0.06 :       0.00 :       0.06 :       0.07 *
 * DYNA_VIBRA               :       0.03 :       0.00 :       0.03 :       0.03 *
 * CALC_CHAMP               :       0.06 :       0.01 :       0.07 :       0.06 *
 * IMPR_RESU                :       0.00 :       0.00 :       0.00 :       0.01 *
 * DETRUIRE                 :       0.02 :       0.00 :       0.02 :       0.01 *
 * ASSEMBLAGE               :       0.06 :       0.00 :       0.06 :       0.07 *
 * DYNA_VIBRA               :       0.03 :       0.00 :       0.03 :       0.03 *
 * CALC_CHAMP               :       0.07 :       0.00 :       0.07 :       0.06 *
 * IMPR_RESU                :       0.00 :       0.00 :       0.00 :       0.01 *
 * DETRUIRE                 :       0.01 :       0.00 :       0.01 :       0.01 *
 * ASSEMBLAGE               :       0.06 :       0.00 :       0.06 :       0.07 *
 * DYNA_VIBRA               :       0.03 :       0.00 :       0.03 :       0.03 *
 * CALC_CHAMP               :       0.06 :       0.00 :       0.06 :       0.06 *
 * IMPR_RESU                :       0.00 :       0.00 :       0.00 :       0.01 *
 * DETRUIRE                 :       0.01 :       0.00 :       0.01 :       0.01 *
 * ASSEMBLAGE               :       0.06 :       0.00 :       0.06 :       0.07 *
 * DYNA_VIBRA               :       0.03 :       0.00 :       0.03 :       0.03 *
 * CALC_CHAMP               :       0.06 :       0.00 :       0.06 :       0.06 *
 * IMPR_RESU                :       0.00 :       0.00 :       0.00 :       0.01 *
 * DETRUIRE                 :       0.01 :       0.00 :       0.01 :       0.01 *
 * ASSEMBLAGE               :       0.06 :       0.00 :       0.06 :       0.07 *
 * DYNA_VIBRA               :       0.03 :       0.01 :       0.04 :       0.03 *
 * CALC_CHAMP               :       0.06 :       0.00 :       0.06 :       0.06 *
 * IMPR_RESU                :       0.01 :       0.00 :       0.01 :       0.01 *
 * DETRUIRE                 :       0.01 :       0.01 :       0.02 :       0.01 *
 * ASSEMBLAGE               :       0.06 :       0.00 :       0.06 :       0.06 *
 * DYNA_VIBRA               :       0.03 :       0.00 :       0.03 :       0.02 *
 * CALC_CHAMP               :       0.05 :       0.01 :       0.06 :       0.07 *
 * IMPR_RESU                :       0.01 :       0.00 :       0.01 :       0.01 *
 * DETRUIRE                 :       0.01 :       0.00 :       0.01 :       0.01 *
 * ASSEMBLAGE               :       0.07 :       0.00 :       0.07 :       0.06 *
 * DYNA_VIBRA               :       0.03 :       0.00 :       0.03 :       0.03 *
 * CALC_CHAMP               :       0.05 :       0.01 :       0.06 :       0.07 *
 * IMPR_RESU                :       0.00 :       0.00 :       0.00 :       0.00 *
 * DETRUIRE                 :       0.02 :       0.00 :       0.02 :       0.01 *
 * ASSEMBLAGE               :       0.06 :       0.00 :       0.06 :       0.06 *
 * DYNA_VIBRA               :       0.03 :       0.01 :       0.04 :       0.03 *
 * CALC_CHAMP               :       0.06 :       0.00 :       0.06 :       0.07 *
 * IMPR_RESU                :       0.00 :       0.00 :       0.00 :       0.00 *
 * DETRUIRE                 :       0.02 :       0.00 :       0.02 :       0.02 *
 * ASSEMBLAGE               :       0.06 :       0.00 :       0.06 :       0.06 *
 * DYNA_VIBRA               :       0.03 :       0.01 :       0.04 :       0.03 *
 * CALC_CHAMP               :       0.06 :       0.00 :       0.06 :       0.07 *
 * IMPR_RESU                :       0.01 :       0.00 :       0.01 :       0.00 *
 * DETRUIRE                 :       0.01 :       0.00 :       0.01 :       0.02 *
 * ASSEMBLAGE               :       0.07 :       0.00 :       0.07 :       0.06 *
 * DYNA_VIBRA               :       0.03 :       0.00 :       0.03 :       0.03 *
 * CALC_CHAMP               :       0.06 :       0.00 :       0.06 :       0.07 *
 * IMPR_RESU                :       0.01 :       0.00 :       0.01 :       0.00 *
 * DETRUIRE                 :       0.01 :       0.00 :       0.01 :       0.02 *
 * ASSEMBLAGE               :       0.07 :       0.00 :       0.07 :       0.06 *
 * DYNA_VIBRA               :       0.02 :       0.00 :       0.02 :       0.03 *
 * CALC_CHAMP               :       0.06 :       0.00 :       0.06 :       0.06 *
 * IMPR_RESU                :       0.00 :       0.01 :       0.01 :       0.01 *
 * DETRUIRE                 :       0.02 :       0.00 :       0.02 :       0.02 *
 * ASSEMBLAGE               :       0.06 :       0.00 :       0.06 :       0.06 *
 * DYNA_VIBRA               :       0.03 :       0.00 :       0.03 :       0.03 *
 * CALC_CHAMP               :       0.06 :       0.00 :       0.06 :       0.07 *
 * IMPR_RESU                :       0.01 :       0.00 :       0.01 :       0.00 *
 * DETRUIRE                 :       0.01 :       0.01 :       0.02 :       0.02 *
 * ASSEMBLAGE               :       0.06 :       0.00 :       0.06 :       0.06 *
 * DYNA_VIBRA               :       0.03 :       0.00 :       0.03 :       0.03 *
 * CALC_CHAMP               :       0.06 :       0.00 :       0.06 :       0.07 *
 * IMPR_RESU                :       0.01 :       0.00 :       0.01 :       0.00 *
 * DETRUIRE                 :       0.01 :       0.00 :       0.01 :       0.02 *
 * ASSEMBLAGE               :       0.07 :       0.00 :       0.07 :       0.06 *
 * DYNA_VIBRA               :       0.03 :       0.00 :       0.03 :       0.03 *
 * CALC_CHAMP               :       0.06 :       0.00 :       0.06 :       0.07 *
 * IMPR_RESU                :       0.01 :       0.00 :       0.01 :       0.00 *
 * DETRUIRE                 :       0.01 :       0.00 :       0.01 :       0.02 *
 * ASSEMBLAGE               :       0.07 :       0.00 :       0.07 :       0.06 *
 * DYNA_VIBRA               :       0.03 :       0.01 :       0.04 :       0.02 *
 * CALC_CHAMP               :       0.06 :       0.00 :       0.06 :       0.07 *
 * IMPR_RESU                :       0.00 :       0.00 :       0.00 :       0.01 *
 * DETRUIRE                 :       0.02 :       0.00 :       0.02 :       0.01 *
 * ASSEMBLAGE               :       0.06 :       0.01 :       0.07 :       0.07 *
 * DYNA_VIBRA               :       0.03 :       0.00 :       0.03 :       0.02 *
 * CALC_CHAMP               :       0.05 :       0.00 :       0.05 :       0.07 *
 * IMPR_RESU                :       0.01 :       0.00 :       0.01 :       0.01 *
 * DETRUIRE                 :       0.01 :       0.00 :       0.01 :       0.01 *
 * ASSEMBLAGE               :       0.07 :       0.00 :       0.07 :       0.06 *
 * DYNA_VIBRA               :       0.03 :       0.00 :       0.03 :       0.02 *
 * CALC_CHAMP               :       0.05 :       0.02 :       0.07 :       0.07 *
 * IMPR_RESU                :       0.01 :       0.00 :       0.01 :       0.01 *
 * DETRUIRE                 :       0.01 :       0.00 :       0.01 :       0.01 *
 * ASSEMBLAGE               :       0.07 :       0.00 :       0.07 :       0.07 *
 * DYNA_VIBRA               :       0.02 :       0.00 :       0.02 :       0.03 *
 * CALC_CHAMP               :       0.06 :       0.00 :       0.06 :       0.06 *
 * IMPR_RESU                :       0.01 :       0.00 :       0.01 :       0.01 *
 * DETRUIRE                 :       0.02 :       0.00 :       0.02 :       0.01 *
 * ASSEMBLAGE               :       0.06 :       0.00 :       0.06 :       0.07 *
 * DYNA_VIBRA               :       0.03 :       0.01 :       0.04 :       0.03 *
 * CALC_CHAMP               :       0.06 :       0.00 :       0.06 :       0.06 *
 * IMPR_RESU                :       0.00 :       0.00 :       0.00 :       0.01 *
 * DETRUIRE                 :       0.02 :       0.00 :       0.02 :       0.02 *
 * ASSEMBLAGE               :       0.06 :       0.01 :       0.07 :       0.06 *
 * DYNA_VIBRA               :       0.03 :       0.00 :       0.03 :       0.03 *
 * CALC_CHAMP               :       0.06 :       0.01 :       0.07 :       0.07 *
 * IMPR_RESU                :       0.00 :       0.00 :       0.00 :       0.00 *
 * DETRUIRE                 :       0.02 :       0.00 :       0.02 :       0.02 *
 * ASSEMBLAGE               :       0.06 :       0.00 :       0.06 :       0.06 *
 * DYNA_VIBRA               :       0.03 :       0.00 :       0.03 :       0.04 *
 * CALC_CHAMP               :       0.06 :       0.00 :       0.06 :       0.06 *
 * IMPR_RESU                :       0.01 :       0.00 :       0.01 :       0.00 *
 * DETRUIRE                 :       0.01 :       0.00 :       0.01 :       0.02 *
 * ASSEMBLAGE               :       0.06 :       0.00 :       0.06 :       0.06 *
 * DYNA_VIBRA               :       0.03 :       0.00 :       0.03 :       0.04 *
 * CALC_CHAMP               :       0.06 :       0.00 :       0.06 :       0.06 *
 * IMPR_RESU                :       0.01 :       0.00 :       0.01 :       0.00 *
 * DETRUIRE                 :       0.01 :       0.00 :       0.01 :       0.02 *
 * ASSEMBLAGE               :       0.06 :       0.01 :       0.07 :       0.06 *
 * DYNA_VIBRA               :       0.03 :       0.00 :       0.03 :       0.04 *
 * CALC_CHAMP               :       0.06 :       0.00 :       0.06 :       0.06 *
 * IMPR_RESU                :       0.00 :       0.00 :       0.00 :       0.01 *
 * DETRUIRE                 :       0.02 :       0.00 :       0.02 :       0.01 *
 * ASSEMBLAGE               :       0.06 :       0.00 :       0.06 :       0.07 *
 * DYNA_VIBRA               :       0.03 :       0.00 :       0.03 :       0.03 *
 * CALC_CHAMP               :       0.06 :       0.00 :       0.06 :       0.06 *
 * IMPR_RESU                :       0.01 :       0.00 :       0.01 :       0.01 *
 * DETRUIRE                 :       0.02 :       0.00 :       0.02 :       0.01 *
 * ASSEMBLAGE               :       0.06 :       0.00 :       0.06 :       0.07 *
 * DYNA_VIBRA               :       0.03 :       0.01 :       0.04 :       0.03 *
 * CALC_CHAMP               :       0.05 :       0.01 :       0.06 :       0.06 *
 * IMPR_RESU                :       0.00 :       0.00 :       0.00 :       0.01 *
 * DETRUIRE                 :       0.02 :       0.00 :       0.02 :       0.02 *
 * ASSEMBLAGE               :       0.06 :       0.00 :       0.06 :       0.06 *
 * DYNA_VIBRA               :       0.03 :       0.00 :       0.03 :       0.03 *
 *  . part Superviseur      :       5.25 :       0.13 :       5.38 :       5.41 *
 *  . part Fortran          :      14.04 :       0.73 :      14.77 :      14.78 *
 * > 500 commandes...       :      27.67 :       1.52 :      29.19 :      31.12 *
 ********************************************************************************
 * TOTAL_JOB                :      46.96 :       2.38 :      49.34 :      51.33 *
 ********************************************************************************

