                                                                                
                                                                                
        -- CODE_ASTER -- VERSION : DÉVELOPPEMENT STABILISÉE (testing) --        
                                                                                
                          Version 11.3.0 du 12/12/2012                          
                         Copyright EDF R&D 1991 - 2016                          
                                                                                
                    Exécution du : Fri Jun 24 15:50:35 2016                     
                   Nom de la machine : liding-Precision-T3600                   
                              Architecture : 64bit                              
                          Type de processeur : x86_64                           
                Système d'exploitation : Linux 3.13.0-85-generic                
                        Langue des messages : en (UTF-8)                        
                                                                                
   
   !------------------------------------------------------------------------------------!
   ! <A> <SUPERVIS2_2>                                                                  !
   !                                                                                    !
   !     Vous utilisez une vieille version de Code_Aster.                               !
   !                                                                                    !
   !     En mettant à jour votre version, vous bénéficierez des dernières améliorations !
   !     apportées au code depuis 15 mois.                                              !
   !     Si vous avez des développements privés, vous risquez d'avoir un travail        !
   !     important de portage si vous ne suivez pas les mises à jour.                   !
   !                                                                                    !
   !                                                                                    !
   ! Ceci est une alarme. Si vous ne comprenez pas le sens de cette                     !
   ! alarme, vous pouvez obtenir des résultats inattendus !                             !
   !------------------------------------------------------------------------------------!
   
                           Parallélisme MPI : inactif                           
                          Parallélisme OpenMP : actif                           
                        Nombre de processus utilisés : 1                        
                      Version de la librairie HDF5 : 1.8.8                      
                      Version de la librairie MED : 3.0.6                       
                          Librairie MUMPS : installée                           
                    Version de la librairie SCOTCH : 5.1.10                     
                 Mémoire limite pour l'exécution : 20000.00 Mo                  
                   consommée par l'initialisation : 210.67 Mo                   
                 par les objets du jeu de commandes : 11.87 Mo                  
                reste pour l'allocation dynamique : 19777.46 Mo                 
                Taille limite des fichiers d'échange : 97.66 Go                 
                                                                                
   
   !----------------------------------------------------------------------------------------------------------------!
   ! <EXCEPTION> <MATRICE0_12>                                                                                      !
   !                                                                                                                !
   !  Une des charges renseignées pour l'assemblage des vecteurs est déjà présente dans le mot-clé                  !
   !  CHARGE définissant les conditions de Dirichlet. Il est interdit de renseigner plus d'une fois la même charge. !
   !----------------------------------------------------------------------------------------------------------------!
   

 --------------------------------------------------------------------------------
 ASTER 11.03.00 CONCEPT Pr_0 CALCULE LE 24/06/2016 A 15:50:35 DE TYPE ACOU_HARMO 

                    ENTITES TOPOLOGIQUES SELECTIONNEES 
 GROUP_MA : ENTREE SORTIE                                                        


 ======>

 ------>
 CHAMP AUX NOEUDS DE NOM SYMBOLIQUE  INTE_NOEU                                   
 NUMERO D'ORDRE: 1 FREQ:   2.00000000000000E+01                                  
 NOEUD        INTX_R       INTX_I       INTY_R       INTY_I       INTZ_R       INTZ_I  
 N1        2.91969053639161E-28 -4.48893669000248E-02  3.34477023813709E-28  8.50454086078953E+02 -1.54177625395998E-28 -5.89317406827918E-02
 N2       -1.45382673711959E-28  5.07449306846505E-02  1.38839519318898E-28  8.50417811635593E+02 -3.77567010017451E-29 -6.30391088717594E-02
 N3        6.45657228648132E-28  1.63918532500051E-01  1.43775446654769E-27  8.32375798681333E-01  3.23063192591292E-29 -2.05683004442858E-01
 N4        1.32967744104450E-28 -1.54348741597304E-01  2.05566058544116E-28  8.86064192437417E-01  7.71211683210647E-28 -1.53317661502662E-01
 N18       1.83683064737005E-28  1.08854844716572E-01 -3.15018968399576E-28  9.38092169088008E-01  1.09945562735234E-29  9.28407830420623E-02
 N19      -1.50730981167523E-28 -1.28298402358348E-01 -3.03150617710284E-28  7.63236619747932E-01  1.50006831508433E-28  1.32234502015913E-01
 N28      -1.78006001039935E-28 -4.85668907668989E-02  1.45150406560666E-28  8.50441808394880E+02  2.49476490904167E-28  6.29791827637462E-02
 N29      -8.01004375002859E-29  2.30026065803886E-02  7.88860905221012E-29  8.50419058817007E+02 -2.49224892231057E-28  9.34292302050664E-02
 N41       1.45351377350363E-28 -6.27396911616470E-02  3.32899302003267E-28  8.50458001170404E+02 -2.88263949612148E-28 -7.47699668273417E-02
 N42      -1.40554303143716E-28  1.86578852057516E-03  1.51461293802434E-28  8.50361907188588E+02 -1.91683056737665E-28 -7.43023952141083E-02
 N43      -1.30056412104017E-28  8.02808183884111E-02  2.28769662514093E-28  8.50410830388898E+02 -5.59249611321221E-29 -3.12695398693689E-02
 N44       6.12178018052871E-29  7.91063324903067E-02  4.10207670714926E-28  8.50438850850830E+02  8.08685344732940E-29  1.22082958878555E-02
 N45       9.53535378444655E-29 -2.68027510414142E-02  2.05103835357463E-28  8.50432993825841E+02  1.19536693858283E-28  7.76982049041637E-02
 N46       4.10185666965312E-28 -1.76820185823488E-02  5.83757069863549E-29  8.50440656632654E+02 -5.26751469439631E-29  1.07167507214595E-01
 N47       5.91880917501823E-29 -6.04365358785114E-02  8.83524213847533E-29  8.50362560514867E+02 -2.20217501812830E-28 -1.75737698172027E-02
 N48      -1.50473195444466E-28 -6.29232578686780E-02  2.06681557167905E-28  8.50370367761514E+02 -6.70093620375512E-30  1.15508768751973E-02
 N64       1.62569544140341E-28  6.10582068249728E-04  3.42607016085616E-28  8.81413858483299E-01 -4.71146405271272E-28  1.51912415665590E-02
 N65       6.34979680443455E-28  5.27378068881631E-02  1.08030186886942E-27  8.14517222286631E-01 -4.95734367685275E-31 -8.06637303286809E-02
 N110      2.75137838273842E-28  1.34405866220788E-01  6.37461241176798E-28  8.52618730380113E-01 -4.82824859268047E-28 -1.09299929802444E-01
 N111      6.25875231817353E-28  1.94851414902212E-01 -2.21545114106708E-28  8.28738251441915E-01  1.35901850226476E-28  4.53304038179362E-03
 N121     -1.35510597558273E-28 -9.57461883144135E-02 -5.90667306504010E-28  7.42477876770694E-01  3.68191583048174E-28  1.63458999282200E-01
 N122      5.39452447792130E-28 -3.13398001509347E-02 -2.68711908816729E-28  7.02882522227298E-01  1.41833184824454E-28  2.18768930074979E-01
 N123     -2.12620409770987E-28 -3.90520231571308E-02 -3.85194793128621E-29  9.17711919309974E-01  2.25127006765528E-28 -2.64178825330677E-02
 N124     -5.63007100642721E-29 -1.56758430514884E-01 -2.06621468153640E-28  8.20993624035852E-01 -1.88027577505554E-29  1.08175105088949E-01
 N248     -1.76354612409120E-29 -5.56627082056112E-02  7.19441145561563E-29  8.50320448847547E+02 -2.13861147148151E-28 -2.94468110348431E-03
 N249     -1.41996385164972E-28  1.58407882044743E-03  1.35926802130390E-28  8.50292536368093E+02 -1.59605962648174E-29 -8.49796593149147E-03
 N250      1.48361891303771E-28 -1.53874351854827E-02  1.61378402325213E-28  8.50357146921612E+02 -4.32329521105069E-29  3.03614314884648E-02
 N251      1.59480593250787E-28 -2.92739541102311E-02  4.25984888819346E-29  8.50321561274583E+02 -1.73818657194999E-28  1.03428044846443E-02
 N302      4.19857855664894E-28 -2.19214788559962E-02  5.85555888431606E-28  8.00287190433605E-01 -1.81936944427051E-28 -2.70341639858029E-02
 N303      5.94535292043715E-28  4.27818078062124E-02  4.10865568383929E-28  8.65397861630473E-01 -3.39621595967635E-28 -7.70920999202028E-02
 N304      5.14230822829136E-28 -6.30593302450999E-04  3.97542755400636E-29  9.83838876269721E-01  2.11816757465856E-28  1.98922276853593E-02
 N305     -4.30746888173268E-29 -3.34280732685659E-02 -1.77552251945037E-28  9.73955182596954E-01  1.45590395573943E-28  4.25292296939692E-02
 

 ------>
 CHAMP AUX NOEUDS DE NOM SYMBOLIQUE  PRAC_NOEU                                   
 NUMERO D'ORDRE: 1 FREQ:   2.00000000000000E+01                                  
 NOEUD        PRES_R       PRES_I  
 N1       -2.08374130625176E-14 -3.40300780225375E+02
 N2       -2.08374769594214E-14 -3.40301823741004E+02
 N3       -3.20031599579235E-14 -5.22651265331447E+02
 N4       -3.20032410478256E-14 -5.22652589630047E+02
 N18      -3.20033308080955E-14 -5.22654055526499E+02
 N19      -3.20031752777054E-14 -5.22651515522471E+02
 N28      -2.08374258847586E-14 -3.40300989628461E+02
 N29      -2.08374996694224E-14 -3.40302194623466E+02
 N41      -2.08374533698798E-14 -3.40301438494555E+02
 N42      -2.08375304134058E-14 -3.40302696710819E+02
 N43      -2.08375369029927E-14 -3.40302802693815E+02
 N44      -2.08374943393822E-14 -3.40302107577303E+02
 N45      -2.08374694942409E-14 -3.40301701825356E+02
 N46      -2.08374517245815E-14 -3.40301411624794E+02
 N47      -2.08374691005850E-14 -3.40301695396467E+02
 N48      -2.08374887190291E-14 -3.40302015789972E+02
 N64      -3.20033312992159E-14 -5.22654063547104E+02
 N65      -3.20032838931941E-14 -5.22653289348015E+02
 N110     -3.20032981981969E-14 -5.22653522966440E+02
 N111     -3.20032635632505E-14 -5.22652957334840E+02
 N121     -3.20032546112796E-14 -5.22652811138060E+02
 N122     -3.20032358415884E-14 -5.22652504605740E+02
 N123     -3.20033342809366E-14 -5.22654112242299E+02
 N124     -3.20032597439175E-14 -5.22652894960398E+02
 N248     -2.08375647035266E-14 -3.40303256710989E+02
 N249     -2.08376126785146E-14 -3.40304040202000E+02
 N250     -2.08375615599298E-14 -3.40303205372157E+02
 N251     -2.08375540045661E-14 -3.40303081983703E+02
 N302     -3.20032519859800E-14 -5.22652768263664E+02
 N303     -3.20033616167198E-14 -5.22654558669517E+02
 N304     -3.20033873071873E-14 -5.22654978226690E+02
 N305     -3.20033742030836E-14 -5.22654764220437E+02
 
   
   !----------------------------------------------------------------------------------------------------------------!
   ! <EXCEPTION> <MATRICE0_12>                                                                                      !
   !                                                                                                                !
   !  Une des charges renseignées pour l'assemblage des vecteurs est déjà présente dans le mot-clé                  !
   !  CHARGE définissant les conditions de Dirichlet. Il est interdit de renseigner plus d'une fois la même charge. !
   !----------------------------------------------------------------------------------------------------------------!
   

 --------------------------------------------------------------------------------
 ASTER 11.03.00 CONCEPT Pr_1 CALCULE LE 24/06/2016 A 15:50:35 DE TYPE ACOU_HARMO 

                    ENTITES TOPOLOGIQUES SELECTIONNEES 
 GROUP_MA : ENTREE SORTIE                                                        


 ======>

 ------>
 CHAMP AUX NOEUDS DE NOM SYMBOLIQUE  INTE_NOEU                                   
 NUMERO D'ORDRE: 1 FREQ:   3.20000000000000E+01                                  
 NOEUD        INTX_R       INTX_I       INTY_R       INTY_I       INTZ_R       INTZ_I  
 N1        8.89719448996141E-31 -1.26611303779299E-03 -4.18096279767136E-29  9.08871272776478E+01  5.82040103318128E-31 -1.15925464441248E-03
 N2       -2.61139248571896E-30  1.03884088201420E-03 -4.49650715975977E-29  9.08877324648417E+01  1.86579278187374E-30 -1.44530475497748E-03
 N3       -1.89992989013801E-28  1.04011665235094E-01 -1.12289419477553E-29  5.28170863219690E-01  3.62444608094123E-29 -1.30512652555731E-01
 N4        1.78086119725621E-28 -9.79397366749056E-02  8.96712982106697E-29  5.62241483388918E-01  6.40233039552760E-29 -9.72862533732490E-02
 N18      -9.71993731772905E-29  6.90730687775015E-02  1.96142868512218E-28  5.95257933356206E-01  1.08158059005600E-29  5.89112201630865E-02
 N19       8.49188734798998E-29 -8.14094406639216E-02 -4.32086234883165E-29  4.84300080017326E-01  1.27387169497594E-28  8.39076404559469E-02
 N28       1.34321576558857E-30 -1.23828951000423E-03 -4.81205152184817E-29  9.08866754766963E+01  8.73842564017099E-31  1.52688175447358E-03
 N29       1.72637350949334E-30  2.21116464353459E-04 -4.29929193345451E-29  9.08876244943133E+01 -9.15350492058758E-31  2.70379016365797E-03
 N41       2.16471817410141E-30 -1.77378906045177E-03 -4.29929193345451E-29  9.08879472046434E+01 -7.77540048266661E-31 -1.65296350838136E-03
 N42       8.93254332914902E-31 -1.80227557687603E-04 -4.25984888819346E-29  9.08869027740772E+01 -6.31729095883318E-31 -1.73455853456061E-03
 N43      -1.46293939502208E-30  1.78908757364864E-03 -4.35845650134609E-29  9.08883339377106E+01  3.34360998571622E-31 -6.77417596540320E-04
 N44      -2.03940934782918E-31  1.69392715778955E-03 -4.43734259186819E-29  9.08883952960022E+01  1.15714911578561E-30  4.23355969706219E-04
 N45       2.32194176603802E-30 -8.04777167946591E-04 -4.75288695395660E-29  9.08871547174795E+01  1.01383660611528E-30  1.95178877482124E-03
 N46       3.07486752683575E-31 -6.25428033960576E-04 -4.08235518451874E-29  9.08871659000908E+01  7.83396079003813E-31  2.76373439264047E-03
 N47       1.78653388634098E-30 -1.73510159318228E-03 -4.44015995224398E-29  9.08854898917889E+01 -4.50509889230286E-31 -2.18961099975464E-04
 N48       1.15683991375157E-30 -1.66353833845228E-03 -4.96982370289237E-29  9.08858293684708E+01  1.05330914217861E-30  3.19307453144622E-04
 N64      -5.98954583054708E-30  3.87249000568723E-04 -1.11925803904053E-28  5.59293165599535E-01 -8.13347499522275E-30  9.64042056648739E-03
 N65      -4.72698319620459E-29  3.34640843002549E-02 -2.52281415275173E-28  5.16842097447795E-01 -4.10359819180533E-29 -5.11836035574434E-02
 N110     -1.90221019119216E-28  8.52851378629500E-02 -1.14130094923069E-28  5.41019233516207E-01 -8.49626562873022E-29 -6.93552520412665E-02
 N111     -2.91250681769904E-29  1.23640160094338E-01 -7.38077984447409E-29  5.25866072801587E-01  6.05028063319644E-29  2.87650962552719E-03
 N121      6.92340037163129E-29 -6.07540066967253E-02  9.80098044978887E-29  4.71130206815209E-01  3.53042218105624E-29  1.03720645939877E-01
 N122     -2.77816453739328E-28 -1.98860711386934E-02  8.11833397597663E-29  4.46005645339711E-01  9.75529739150800E-29  1.38816570314495E-01
 N123      9.44511536865047E-29 -2.47785448904126E-02 -2.74076339057256E-29  5.82325406831476E-01  5.03584183005748E-29 -1.67639201231662E-02
 N124      1.42314089531567E-28 -9.94683027137631E-02  7.38925393622940E-29  5.20950707318739E-01  7.39549635666164E-29  6.86412975849485E-02
 N248      1.97463851824011E-30 -1.73747612721994E-03 -4.40973246018546E-29  9.08863008755035E+01 -1.00138825259544E-30  4.18684672470254E-05
 N249      6.35842993355872E-31 -1.34215927177192E-04 -4.28412153143103E-29  9.08864310509685E+01 -1.09277172451746E-30 -1.60829744602531E-04
 N250      7.31771913750082E-31 -6.07376680078578E-04 -4.16405863541663E-29  9.08871918360417E+01  1.79402846216363E-31  1.03032501086860E-03
 N251      1.90697746464219E-30 -1.04952945702059E-03 -4.65427934080397E-29  9.08858256798322E+01  2.92796458722026E-31  4.31101671383202E-04
 N302     -5.37164491166447E-29 -1.39101960391466E-02 -2.40930369368943E-28  5.07813310703456E-01  3.24254139520653E-29 -1.71536264714774E-02
 N303     -8.37001660759503E-29  2.71462470488122E-02 -1.66401374357694E-28  5.49130455575029E-01 -2.88529824240971E-29 -4.89177329393575E-02
 N304     -1.35664290529417E-28 -4.00060902607633E-04  7.96372032004122E-29  6.24286585576451E-01  7.38022568822525E-29  1.26221099366076E-02
 N305     -4.89403354475588E-29 -2.12107610953596E-02  1.34022713501416E-29  6.18014042624968E-01  9.31575718869115E-29  2.69858267799253E-02
 

 ------>
 CHAMP AUX NOEUDS DE NOM SYMBOLIQUE  PRAC_NOEU                                   
 NUMERO D'ORDRE: 1 FREQ:   3.20000000000000E+01                                  
 NOEUD        PRES_R       PRES_I  
 N1       -2.22624851339288E-15 -3.63573973319149E+01
 N2       -2.22628035380990E-15 -3.63579173253862E+01
 N3       -2.01539885406584E-14 -3.29139610779050E+02
 N4       -2.01541192706304E-14 -3.29141745761513E+02
 N18      -2.01542639778465E-14 -3.29144109009696E+02
 N19      -2.01540132398543E-14 -3.29140014147530E+02
 N28      -2.22624837419766E-15 -3.63573950586843E+01
 N29      -2.22628199147081E-15 -3.63579440704186E+01
 N41      -2.22626553903577E-15 -3.63576753817640E+01
 N42      -2.22629674164982E-15 -3.63581849591224E+01
 N43      -2.22630093532023E-15 -3.63582534469577E+01
 N44      -2.22628430132471E-15 -3.63579817931954E+01
 N45      -2.22626502569375E-15 -3.63576669982526E+01
 N46      -2.22626216571657E-15 -3.63576202912807E+01
 N47      -2.22626502171239E-15 -3.63576669332321E+01
 N48      -2.22627118788038E-15 -3.63577676343974E+01
 N64      -2.01542647695809E-14 -3.29144121939700E+02
 N65      -2.01541883436454E-14 -3.29142873809453E+02
 N110     -2.01542114054212E-14 -3.29143250436834E+02
 N111     -2.01541555693125E-14 -3.29142338563978E+02
 N121     -2.01541411373547E-14 -3.29142102872221E+02
 N122     -2.01541108777634E-14 -3.29141608695593E+02
 N123     -2.01542695777627E-14 -3.29144200463267E+02
 N124     -2.01541494129330E-14 -3.29142238022671E+02
 N248     -2.22630598062574E-15 -3.63583358430496E+01
 N249     -2.22632647735233E-15 -3.63586705799975E+01
 N250     -2.22630498744219E-15 -3.63583196231314E+01
 N251     -2.22629726512072E-15 -3.63581935080510E+01
 N302     -2.01541369029811E-14 -3.29142033719653E+02
 N303     -2.01543136452737E-14 -3.29144920140336E+02
 N304     -2.01543550633078E-14 -3.29145596548165E+02
 N305     -2.01543339373320E-14 -3.29145251534798E+02
 
   
   !----------------------------------------------------------------------------------------------------------------!
   ! <EXCEPTION> <MATRICE0_12>                                                                                      !
   !                                                                                                                !
   !  Une des charges renseignées pour l'assemblage des vecteurs est déjà présente dans le mot-clé                  !
   !  CHARGE définissant les conditions de Dirichlet. Il est interdit de renseigner plus d'une fois la même charge. !
   !----------------------------------------------------------------------------------------------------------------!
   

 --------------------------------------------------------------------------------
 ASTER 11.03.00 CONCEPT Pr_2 CALCULE LE 24/06/2016 A 15:50:35 DE TYPE ACOU_HARMO 

                    ENTITES TOPOLOGIQUES SELECTIONNEES 
 GROUP_MA : ENTREE SORTIE                                                        


 ======>

 ------>
 CHAMP AUX NOEUDS DE NOM SYMBOLIQUE  INTE_NOEU                                   
 NUMERO D'ORDRE: 1 FREQ:   4.40000000000000E+01                                  
 NOEUD        INTX_R       INTX_I       INTY_R       INTY_I       INTZ_R       INTZ_I  
 N1        2.40136501045867E-29 -1.76245857897856E-02  3.15544362088405E-29 -4.06661439931885E+02 -2.69745748010876E-30 -2.86903212556405E-02
 N2        7.62225294090136E-30  2.42554894779874E-02 -1.57772181044202E-29 -4.06685189974817E+02 -2.43148655478889E-29 -2.84249739473831E-02
 N3       -3.52333475886090E-29  7.73389952106491E-02  4.02010912871614E-29  3.92728465640366E-01  1.96098186937508E-30 -9.70441607167397E-02
 N4        5.22604942269365E-29 -7.28245998735025E-02  4.60928961730308E-29  4.18065933067147E-01  9.18591546274936E-30 -7.23395326912696E-02
 N18      -2.31506408965068E-30  5.13612343300013E-02  4.52963315480323E-29  4.42618929669804E-01 -7.47092299552114E-31  4.38048443376145E-02
 N19       5.93032348475718E-29 -6.05327718184273E-02  5.05487276923651E-29  3.60108182075462E-01 -6.29178201671977E-29  6.23910047788613E-02
 N28       1.19873731598550E-29 -2.05208663526297E-02  1.26217744835362E-29 -4.06667242451246E+02 -1.30246790279020E-29  2.74789847606492E-02
 N29       1.53815523483063E-29  1.37527870960855E-02  3.15544362088405E-30 -4.06685812228304E+02 -8.37914340904555E-30  3.59240266997234E-02
 N41      -6.54565810198890E-30 -2.45872445749910E-02  1.65660790096412E-29 -4.06664196356808E+02 -3.38279965081896E-29 -3.43905670472268E-02
 N42      -3.80294126818704E-30  3.30229836586251E-03 -1.47254035641256E-29 -4.06714342742786E+02 -9.52025690109498E-30 -3.31616455548648E-02
 N43       1.49014977587074E-29  3.67670369986338E-02 -2.60324098722934E-29 -4.06694273587995E+02  1.44489042217764E-29 -1.45369958846877E-02
 N44       3.82411686792557E-29  3.69900264516528E-02 -2.36658271566304E-29 -4.06678169099415E+02 -7.83771635342969E-30  3.91936609591674E-03
 N45       2.15592750761150E-29 -9.98532190282336E-03  1.10440526730942E-29 -4.06675951393532E+02 -1.89022801804316E-29  3.31507106506197E-02
 N46       1.44207796260572E-29 -5.54389169296343E-03  8.67746995743113E-30 -4.06669503196493E+02 -1.39466216922802E-30  4.49331220287928E-02
 N47      -3.17613361114375E-31 -2.33929090157071E-02  1.57772181044202E-29 -4.06707097483950E+02 -1.99818946023640E-29 -9.95606726642505E-03
 N48       1.57079327746709E-29 -2.59336001950153E-02  2.36658271566304E-30 -4.06704875426704E+02 -2.01445531428100E-29  4.60451230561416E-03
 N64      -1.51582242202942E-29  2.87741855170601E-04  2.21636018000083E-29  4.15876365090669E-01  1.01617841655704E-29  7.16941404530053E-03
 N65      -7.10340741388344E-30  2.48828225275464E-02  5.45423360250465E-31  3.84308191799442E-01  5.99320509744142E-30 -3.80579363143794E-02
 N110     -5.03106827512389E-29  6.34149270473745E-02  2.04508081027999E-29  4.02285888202002E-01 -1.84115050823531E-29 -5.15707961024885E-02
 N111      7.86742382282186E-30  9.19345938737487E-02  1.22304255188367E-29  3.91018357063592E-01 -7.33740850397960E-29  2.13902025649382E-03
 N121      5.68476741684780E-30 -4.51742115410887E-02  6.08278009915487E-29  3.50318001548165E-01 -2.01619828088067E-29  7.71232239087354E-02
 N122      3.59258638483620E-29 -1.47864415927506E-02  7.14096304779899E-29  3.31636346409998E-01 -5.32789259815285E-30  1.03219139874724E-01
 N123      2.13760890457484E-29 -1.84230067978045E-02  3.65292783349022E-29  4.33002166457164E-01 -2.98834340450384E-29 -1.24659826428045E-02
 N124     -1.27797007389759E-29 -7.39606814491904E-02  2.40903021163733E-29  3.87362238477944E-01  1.09732265993893E-30  5.10396930014933E-02
 N248     -9.34694096076681E-30 -2.00068970075968E-02 -6.31088724176809E-30 -4.06736964147428E+02 -1.57926038772635E-29 -2.53683128706863E-03
 N249      1.27757896197043E-29  2.59611988554503E-03 -2.11171996166855E-29 -4.06753704275212E+02  1.03740364602876E-29 -4.20881653163666E-03
 N250      1.68571714986208E-29 -4.12821026093458E-03 -2.93005479082090E-30 -4.06721042773011E+02 -7.45440040813663E-30  9.99820054183171E-03
 N251      3.90202233911766E-30 -9.02322255470627E-03  2.36658271566304E-30 -4.06734346398959E+02 -5.91945702689908E-30  2.51978964301765E-03
 N302     -1.71061458772339E-29 -1.03434037621013E-02  4.07253294180236E-29  3.77595428456945E-01 -3.27885239689552E-29 -1.27542920892118E-02
 N303     -5.05143337934416E-30  2.01846586738161E-02  2.53940282933938E-29  4.08319732625659E-01 -2.17885259402504E-29 -3.63736079202304E-02
 N304      1.08058738196515E-29 -2.97392262015310E-04  4.24729182495606E-29  4.64204444224170E-01 -4.13661841116512E-29  9.38513399015882E-03
 N305     -1.51027436812534E-29 -1.57710079260707E-02  4.07808512269918E-29  4.59539322773423E-01 -2.87365977897257E-29  2.00652124971263E-02
 

 ------>
 CHAMP AUX NOEUDS DE NOM SYMBOLIQUE  PRAC_NOEU                                   
 NUMERO D'ORDRE: 1 FREQ:   4.40000000000000E+01                                  
 NOEUD        PRES_R       PRES_I  
 N1        9.95691804160043E-15  1.62608811757526E+02
 N2        9.95701709087047E-15  1.62610429354863E+02
 N3       -1.48207288865659E-14 -2.42040870835325E+02
 N4       -1.48209106428904E-14 -2.42043839141364E+02
 N18      -1.48211118304431E-14 -2.42047124783443E+02
 N19      -1.48207632288413E-14 -2.42041431687245E+02
 N28       9.95696009571095E-15  1.62609498553271E+02
 N29       9.95708515814044E-15  1.62611540977741E+02
 N41       9.95699090364709E-15  1.62610001685050E+02
 N42       9.95713472572597E-15  1.62612350477844E+02
 N43       9.95714153407459E-15  1.62612461666615E+02
 N44       9.95706003811197E-15  1.62611130736543E+02
 N45       9.95704493095330E-15  1.62610884017919E+02
 N46       9.95699704645768E-15  1.62610102004760E+02
 N47       9.95704364773212E-15  1.62610863061327E+02
 N48       9.95708631921200E-15  1.62611559939478E+02
 N64      -1.48211129311461E-14 -2.42047142759286E+02
 N65      -1.48210066751465E-14 -2.42045407467124E+02
 N110     -1.48210387379765E-14 -2.42045931092876E+02
 N111     -1.48209611100190E-14 -2.42044663332121E+02
 N121     -1.48209410451192E-14 -2.42044335647440E+02
 N122     -1.48208989749922E-14 -2.42043648590126E+02
 N123     -1.48211196184242E-14 -2.42047251970825E+02
 N124     -1.48209525527213E-14 -2.42044523580843E+02
 N248      9.95721451243511E-15  1.62613653493688E+02
 N249      9.95730045262844E-15  1.62615057003556E+02
 N250      9.95720770496495E-15  1.62613542319264E+02
 N251      9.95720942182852E-15  1.62613570357774E+02
 N302     -1.48209351539932E-14 -2.42044239438050E+02
 N303     -1.48211808818978E-14 -2.42048252479276E+02
 N304     -1.48212384679243E-14 -2.42049192930458E+02
 N305     -1.48212090959799E-14 -2.42048713250204E+02
 
   
   !----------------------------------------------------------------------------------------------------------------!
   ! <EXCEPTION> <MATRICE0_12>                                                                                      !
   !                                                                                                                !
   !  Une des charges renseignées pour l'assemblage des vecteurs est déjà présente dans le mot-clé                  !
   !  CHARGE définissant les conditions de Dirichlet. Il est interdit de renseigner plus d'une fois la même charge. !
   !----------------------------------------------------------------------------------------------------------------!
   

 --------------------------------------------------------------------------------
 ASTER 11.03.00 CONCEPT Pr_3 CALCULE LE 24/06/2016 A 15:50:35 DE TYPE ACOU_HARMO 

                    ENTITES TOPOLOGIQUES SELECTIONNEES 
 GROUP_MA : ENTREE SORTIE                                                        


 ======>

 ------>
 CHAMP AUX NOEUDS DE NOM SYMBOLIQUE  INTE_NOEU                                   
 NUMERO D'ORDRE: 1 FREQ:   5.60000000000000E+01                                  
 NOEUD        INTX_R       INTX_I       INTY_R       INTY_I       INTZ_R       INTZ_I  
 N1        1.30026463893382E-28 -9.74222063522655E-02  1.26217744835362E-29 -8.14628523936760E+02  8.29120544778483E-29 -1.47773158056212E-01
 N2       -8.06779757423591E-29  1.25633719000999E-01 -1.45150406560666E-28 -8.14743857280787E+02 -6.04680372779372E-29 -1.49969675305609E-01
 N3       -7.20760022387479E-30  6.25661705959863E-02  1.95458778195972E-29  3.17713272660374E-01  1.37804139380795E-29 -7.85074501582528E-02
 N4       -2.64437885084145E-29 -5.89145693938566E-02 -3.37484556014864E-29  3.38215072225576E-01 -5.08722839230222E-29 -5.85230478709735E-02
 N18       1.09185783372173E-29  4.15518107989096E-02 -2.33807895248610E-30  3.58081574684871E-01 -2.28207290970332E-29  3.54383307904849E-02
 N19      -1.04697403636779E-29 -4.89700681461089E-02 -2.00666492765595E-29  2.91324248448760E-01  9.01373732572114E-30  5.04740657643727E-02
 N28       9.87724727558660E-29 -1.10602862237102E-01  4.41762106923767E-29 -8.14658014108424E+02  8.05608792017403E-29  1.46522728403127E-01
 N29       2.06087263335316E-29  6.68219577536174E-02 -3.15544362088405E-29 -8.14744287016363E+02 -4.46068004796930E-29  2.00046831314069E-01
 N41       6.04058297407335E-29 -1.36001254608785E-01  6.62643160385650E-29 -8.14636466316431E+02 -9.08307080371908E-30 -1.80294092343309E-01
 N42       1.79740621943179E-30  1.32433564795301E-02  1.36735890238309E-29 -8.14891274254634E+02 -3.35348057729891E-29 -1.75542385351124E-01
 N43      -4.90857913066086E-29  1.93013713641423E-01 -8.51969777638693E-29 -8.14782445355516E+02 -6.45704606524764E-29 -7.59605600389465E-02
 N44       2.92128905824545E-29  1.92910190823439E-01  1.73549399148623E-29 -8.14702477632814E+02 -1.02569251048231E-29  2.33599059619510E-02
 N45       1.05584824006904E-28 -5.62467204396793E-02  3.78653234506086E-29 -8.14696765336065E+02  8.31370030953527E-29  1.78084734115420E-01
 N46       9.66662276204355E-29 -3.33705348619775E-02  2.20881053461883E-29 -8.14668192411860E+02  2.97440620611165E-30  2.42798713029438E-01
 N47       6.80595578795831E-29 -1.29964581183596E-01  4.41762106923767E-29 -8.14862153129991E+02 -4.40286844586366E-29 -4.90858962032706E-02
 N48       1.57847292312033E-28 -1.40960847105988E-01 -1.10440526730942E-29 -8.14848361557694E+02 -5.21440717617983E-29  2.53062270310864E-02
 N64      -1.74298264908665E-29  2.32564918559449E-04 -1.51224019233286E-29  3.36446600942101E-01 -2.13691075497000E-29  5.80120759468998E-03
 N65       1.26295744998110E-29  2.01301144641068E-02 -1.68310869699889E-29  3.10904956528326E-01 -6.51205062445934E-30 -3.07881446495801E-02
 N110     -2.08282903718998E-30  5.13020521567394E-02  2.31707347655932E-29  3.25449222861781E-01 -1.01838681622660E-29 -4.17210676594654E-02
 N111      3.57163708186613E-30  7.43744663976592E-02  9.03877441499818E-30  3.16333697017065E-01  2.10245947938355E-30  1.73060900359784E-03
 N121      3.49459988409064E-30 -3.65452176860711E-02  1.28112859900639E-30  2.83406705294748E-01 -1.22926330560404E-29  6.23922741621047E-02
 N122      6.02168478649405E-30 -1.19619604353569E-02  1.33027833118715E-29  2.68293488624315E-01 -4.96816740314020E-29  8.35034675286882E-02
 N123     -1.07024752408146E-29 -1.49025218014842E-02  5.57925396918030E-30  3.50301061582300E-01 -1.53269769533499E-29 -1.00858588158894E-02
 N124      1.83620086827823E-29 -5.98331112556042E-02  1.61161817746324E-30  3.13374622382692E-01  1.97624486418435E-31  4.12911639011805E-02
 N248      2.16129206510097E-29 -1.14197328938331E-01  4.85938317616143E-29 -8.15003917969783E+02 -3.49718719041499E-29 -1.13402351033402E-02
 N249      1.72891027404557E-29  1.05006762258327E-02  1.84472088605529E-29 -8.15086512693637E+02 -3.25127048749389E-29 -2.15736631677336E-02
 N250      4.41623732296423E-29 -2.65499190373705E-02 -1.62279957645465E-29 -8.14918830443005E+02 -3.57360978439488E-29  5.90030185287371E-02
 N251      9.55538967501696E-29 -5.46938910061710E-02 -6.83679451191544E-30 -8.14992649853053E+02 -4.68951262419491E-29  1.69197229632873E-02
 N302     -7.01207018627088E-30 -8.36801826083498E-03 -1.30192864240577E-29  3.05475157171072E-01 -1.74557864215752E-30 -1.03175421880213E-02
 N303      1.22464177589947E-29  1.63288673112693E-02  3.69573116794948E-30  3.30333348057016E-01 -6.52381685271333E-31 -2.94260615966799E-02
 N304      6.91093403774986E-30 -2.40503853853240E-04  6.22422039427067E-30  3.75544963628703E-01 -6.89824923119036E-30  7.59226025662111E-03
 N305      6.02434325764942E-30 -1.27580126288775E-02  5.13529960371413E-30  3.71769769618920E-01 -5.20542580823382E-30  1.62320630330852E-02
 

 ------>
 CHAMP AUX NOEUDS DE NOM SYMBOLIQUE  PRAC_NOEU                                   
 NUMERO D'ORDRE: 1 FREQ:   5.60000000000000E+01                                  
 NOEUD        PRES_R       PRES_I  
 N1        1.99348424120501E-14  3.25560682899421E+02
 N2        1.99352108631364E-14  3.25566700162302E+02
 N3       -1.18161121782075E-14 -1.92971756206514E+02
 N4       -1.18163469067041E-14 -1.92975589613774E+02
 N18      -1.18166067268674E-14 -1.92979832799050E+02
 N19      -1.18161565336841E-14 -1.92972480586419E+02
 N28       1.99349668722947E-14  3.25562715489465E+02
 N29       1.99354166346085E-14  3.25570060665464E+02
 N41       1.99350984402980E-14  3.25564864158018E+02
 N42       1.99355981885252E-14  3.25573025665934E+02
 N43       1.99356282303500E-14  3.25573516286165E+02
 N44       1.99353475308052E-14  3.25568932114712E+02
 N45       1.99352575378554E-14  3.25567462418309E+02
 N46       1.99351088147473E-14  3.25565033585632E+02
 N47       1.99352536739338E-14  3.25567399315680E+02
 N48       1.99353947218990E-14  3.25569702803760E+02
 N64      -1.18166081482692E-14 -1.92979856012303E+02
 N65      -1.18164709250653E-14 -1.92977614987316E+02
 N110     -1.18165123318216E-14 -1.92978291210963E+02
 N111     -1.18164120829430E-14 -1.92976654022531E+02
 N121     -1.18163861704104E-14 -1.92976230838759E+02
 N122     -1.18163318397009E-14 -1.92975343550940E+02
 N123     -1.18166167885593E-14 -1.92979997118949E+02
 N124     -1.18164010351063E-14 -1.92976473597667E+02
 N248      1.99358565029219E-14  3.25577244260173E+02
 N249      1.99361594736222E-14  3.25582192147198E+02
 N250      1.99358340084556E-14  3.25576876897661E+02
 N251      1.99358209893758E-14  3.25576664279952E+02
 N302     -1.18163785555506E-14 -1.92976106478662E+02
 N303     -1.18166958995385E-14 -1.92981289099285E+02
 N304     -1.18167702717744E-14 -1.92982503690072E+02
 N305     -1.18167323393128E-14 -1.92981884205962E+02
 
   
   !----------------------------------------------------------------------------------------------------------------!
   ! <EXCEPTION> <MATRICE0_12>                                                                                      !
   !                                                                                                                !
   !  Une des charges renseignées pour l'assemblage des vecteurs est déjà présente dans le mot-clé                  !
   !  CHARGE définissant les conditions de Dirichlet. Il est interdit de renseigner plus d'une fois la même charge. !
   !----------------------------------------------------------------------------------------------------------------!
   

 --------------------------------------------------------------------------------
 ASTER 11.03.00 CONCEPT Pr_4 CALCULE LE 24/06/2016 A 15:50:36 DE TYPE ACOU_HARMO 

                    ENTITES TOPOLOGIQUES SELECTIONNEES 
 GROUP_MA : ENTREE SORTIE                                                        


 ======>

 ------>
 CHAMP AUX NOEUDS DE NOM SYMBOLIQUE  INTE_NOEU                                   
 NUMERO D'ORDRE: 1 FREQ:   6.80000000000000E+01                                  
 NOEUD        INTX_R       INTX_I       INTY_R       INTY_I       INTZ_R       INTZ_I  
 N1       -8.81613691342701E-29 -2.55460150999682E-01 -1.13595970351826E-28 -1.18493755440522E+03 -1.64083068285970E-28 -3.80185082257514E-01
 N2        1.43628151532623E-28  3.23729682813361E-01  1.76704842769507E-28 -1.18522814522388E+03 -8.98962468281741E-29 -3.88427478862190E-01
 N3       -8.66302548284823E-30  5.34278166776279E-02  3.86726732832957E-30  2.71309875220949E-01 -7.74609023632546E-31 -6.70408075248379E-02
 N4       -2.62920252287968E-29 -5.03100749478623E-02 -1.31579533800536E-29  2.88821586764488E-01  2.17356601663655E-29 -4.99766818413135E-02
 N18       7.31525970776604E-30  3.54841567021616E-02  9.85074647955183E-30  3.05790082492155E-01  1.44347847478716E-29  3.02631131010294E-02
 N19      -2.78874655947272E-30 -4.18174401937868E-02 -1.74997698466802E-29  2.48775557919772E-01  4.66968678035907E-29  4.31025208051073E-02
 N28      -2.48121406595296E-29 -2.88112615206479E-01  3.78653234506086E-29 -1.18501337745083E+03 -2.87995860163890E-29  3.80565977311315E-01
 N29       4.61629037265093E-29  1.69006529549277E-01 -3.78653234506086E-29 -1.18522753554276E+03 -2.04988279560800E-29  5.25546727540906E-01
 N41       2.03717165797504E-29 -3.56689248554296E-01 -1.04129639489174E-28 -1.18495300032302E+03 -8.31724402063294E-29 -4.66149519151342E-01
 N42       6.67768701944312E-29  3.13345769375411E-02  4.62798397729660E-29 -1.18560527554275E+03  4.64120869624806E-29 -4.55077070646167E-01
 N43      -4.31870530729394E-30  4.99217700464399E-01 -3.15544362088405E-29 -1.18532114026621E+03 -2.87599118595346E-29 -1.96229313111373E-01
 N44       2.02654052468203E-29  4.98037748096172E-01  0.00000000000000E+00 -1.18511794267744E+03 -2.07604462797255E-28  6.23860902000599E-02
 N45      -3.50445101575618E-29 -1.48206210524343E-01  5.04870979341448E-29 -1.18510827958700E+03  7.10437037885564E-30  4.63473286061325E-01
 N46       1.44024893101166E-29 -8.93481062345004E-02 -6.31088724176809E-29 -1.18503800289603E+03  2.39508647883997E-29  6.32882897768036E-01
 N47       5.82863438369353E-30 -3.41241789048495E-01 -9.19586426657637E-29 -1.18553738939232E+03 -4.07553188985862E-29 -1.24706843712723E-01
 N48      -9.95050965067109E-29 -3.68017236812608E-01  8.20415341429852E-29 -1.18550012993433E+03  4.14067234323478E-29  6.62403783292555E-02
 N64      -1.16937651398332E-30  1.98369931827384E-04 -2.83188739022699E-30  2.87314443927310E-01  1.20411387041358E-29  4.95521438755618E-03
 N65       4.78237294140516E-30  1.71902021148685E-02 -1.79165410866456E-29  2.65499753473103E-01 -1.71061579142960E-29 -2.62910503187874E-02
 N110      2.08501175779362E-29  4.38091985720271E-02 -1.32339634151921E-29  2.77920291734038E-01 -1.02530090472695E-30 -3.56283995906222E-02
 N111      1.36018802322349E-30  6.35121028569649E-02 -4.24551996940722E-30  2.70135906357669E-01  5.45735722013320E-30  1.47802016545569E-03
 N121     -7.72743278998921E-30 -3.12073629334367E-02 -1.91714770384083E-29  2.42017171596109E-01  3.34585068483589E-29  5.32800183353144E-02
 N122      1.15781130466727E-29 -1.02147392922020E-02 -2.31496779315346E-30  2.29111357744570E-01  1.24322629770085E-29  7.13076896582187E-02
 N123     -9.75782035973515E-30 -1.27243553122067E-02 -3.66564997643715E-30  2.99145257133725E-01  5.80622137396572E-30 -8.61384182938060E-03
 N124      2.36263455927704E-30 -5.10938919604023E-02  3.71396330475635E-30  2.67607628005340E-01  1.67654849812582E-29  3.52610250908856E-02
 N248      1.07756666316240E-28 -3.01896991187085E-01  6.31088724176809E-30 -1.18589225786447E+03 -4.92840974857110E-29 -2.79375317334896E-02
 N249      6.63918422305749E-29  2.49278036946457E-02  1.84472088605529E-29 -1.18610158179720E+03 -5.55674640899067E-29 -5.54428843039194E-02
 N250      4.00549819875947E-29 -7.21451627805907E-02 -2.25388830063146E-29 -1.18567111783320E+03 -1.25681125726286E-28  1.57226449576180E-01
 N251     -2.06495520359985E-29 -1.46679169525938E-01 -1.47254035641256E-29 -1.18586528544208E+03  1.22220065969496E-31  4.63678938299575E-02
 N302      7.35247830394132E-30 -7.14616275499559E-03 -1.91283362076540E-30  2.60863801197364E-01  3.56310280480006E-30 -8.81003939321533E-03
 N303      7.49726811221873E-30  1.39436341087945E-02 -5.72065391147822E-30  2.82094041911613E-01 -3.14771081153963E-30 -2.51284570674286E-02
 N304      5.13127997727160E-30 -2.05288864075407E-04  6.54238402108344E-31  3.20703853202343E-01  1.00306877693520E-29  6.48314961206899E-03
 N305     -1.71138134858250E-30 -1.08940462838508E-02 -1.92592994438724E-32  3.17478815428972E-01  3.13599000886543E-30  1.38607854954484E-02
 

 ------>
 CHAMP AUX NOEUDS DE NOM SYMBOLIQUE  PRAC_NOEU                                   
 NUMERO D'ORDRE: 1 FREQ:   6.80000000000000E+01                                  
 NOEUD        PRES_R       PRES_I  
 N1        2.89766456426154E-14  4.73224535642277E+02
 N2        2.89774643014077E-14  4.73237905354964E+02
 N3       -9.90902236698965E-15 -1.61826616031475E+02
 N4       -9.90931261180013E-15 -1.61831356088945E+02
 N18      -9.90963387860252E-15 -1.61836602773991E+02
 N19      -9.90907721965682E-15 -1.61827511843511E+02
 N28       2.89769052175453E-14  4.73228774822588E+02
 N29       2.89778962715299E-14  4.73244959962422E+02
 N41       2.89772064822148E-14  4.73233694848015E+02
 N42       2.89782980471158E-14  4.73251521455681E+02
 N43       2.89783673396963E-14  4.73252653089399E+02
 N44       2.89777556929050E-14  4.73242664139252E+02
 N45       2.89775377370032E-14  4.73239104649251E+02
 N46       2.89772230012843E-14  4.73233964624893E+02
 N47       2.89775295434832E-14  4.73238970838915E+02
 N48       2.89778335435174E-14  4.73243935536236E+02
 N64      -9.90963563604682E-15 -1.61836631475235E+02
 N65      -9.90946595884829E-15 -1.61833860436293E+02
 N110     -9.90951715782119E-15 -1.61834696578974E+02
 N111     -9.90939320406727E-15 -1.61832672260550E+02
 N121     -9.90936116319611E-15 -1.61832148993414E+02
 N122     -9.90929398348125E-15 -1.61831051865411E+02
 N123     -9.90964632605475E-15 -1.61836806056313E+02
 N124     -9.90937954856737E-15 -1.61832449249313E+02
 N248      2.89788514544060E-14  4.73260559282598E+02
 N249      2.89795157081460E-14  4.73271407369416E+02
 N250      2.89788030334171E-14  4.73259768507838E+02
 N251      2.89787637463894E-14  4.73259126901985E+02
 N302     -9.90935173692532E-15 -1.61831995050730E+02
 N303     -9.90974413630832E-15 -1.61838403418976E+02
 N304     -9.90983610311016E-15 -1.61839905350829E+02
 N305     -9.90978919885959E-15 -1.61839139346286E+02
 
   
   !----------------------------------------------------------------------------------------------------------------!
   ! <EXCEPTION> <MATRICE0_12>                                                                                      !
   !                                                                                                                !
   !  Une des charges renseignées pour l'assemblage des vecteurs est déjà présente dans le mot-clé                  !
   !  CHARGE définissant les conditions de Dirichlet. Il est interdit de renseigner plus d'une fois la même charge. !
   !----------------------------------------------------------------------------------------------------------------!
   

 --------------------------------------------------------------------------------
 ASTER 11.03.00 CONCEPT Pr_5 CALCULE LE 24/06/2016 A 15:50:36 DE TYPE ACOU_HARMO 

                    ENTITES TOPOLOGIQUES SELECTIONNEES 
 GROUP_MA : ENTREE SORTIE                                                        


 ======>

 ------>
 CHAMP AUX NOEUDS DE NOM SYMBOLIQUE  INTE_NOEU                                   
 NUMERO D'ORDRE: 1 FREQ:   8.00000000000000E+01                                  
 NOEUD        INTX_R       INTX_I       INTY_R       INTY_I       INTZ_R       INTZ_I  
 N1        2.42987647735538E-28 -5.11623282822501E-01 -2.52435489670724E-29 -1.53951133604728E+03 -6.03232073461192E-29 -7.54771598029380E-01
 N2       -3.55819409085431E-28  6.43149577267310E-01 -7.57306469012171E-29 -1.54008218307244E+03 -7.77027991642697E-29 -7.73553455263039E-01
 N3        1.01265396475881E-30  4.74269204784150E-02 -1.38975104786983E-30  2.40838522371695E-01 -3.92466004067231E-30 -5.95110131021502E-02
 N4       -1.36355840062616E-29 -4.46598972331752E-02  1.73611028906843E-29  2.56388002101792E-01  3.97858607911515E-30 -4.43649488690223E-02
 N18      -1.59371184380530E-29  3.15000973006898E-02  1.44853042977253E-29  2.71454528477073E-01 -1.68743963196133E-30  2.68649489276257E-02
 N19      -1.46420749951984E-29 -3.71204825198780E-02  1.27404117681104E-29  2.20835584763462E-01  2.61233137656685E-30  3.82620265868366E-02
 N28       8.95418757184069E-29 -5.75282396759614E-01 -2.90300813121332E-28 -1.53966185583277E+03 -6.77619191633205E-29  7.58829645788704E-01
 N29      -1.09297102122959E-28  3.32823474393009E-01 -2.42969158808072E-28 -1.54007941922311E+03  1.31315681398155E-29  1.05341731357672E+00
 N41       2.58723265753159E-28 -7.14430780793281E-01 -1.86171173632159E-28 -1.53953720477741E+03  3.38871225574823E-29 -9.27571650221504E-01
 N42      -2.57457287803049E-28  5.96546969440154E-02 -8.83524213847533E-29 -1.54082881967493E+03  6.97345850076915E-29 -9.06674782445455E-01
 N43      -2.90305435353199E-28  9.93532443519723E-01 -2.01948391736579E-28 -1.54026081473559E+03 -2.73493607682654E-29 -3.90337441289047E-01
 N44      -1.79898804989278E-28  9.90331500433528E-01 -4.82782873995259E-28 -1.53985991329372E+03 -1.21701631708768E-28  1.25948897384454E-01
 N45       2.24745046709307E-28 -2.97483203636086E-01 -2.87145369500448E-28 -1.53984565785808E+03 -2.18975153188918E-28  9.25010695488427E-01
 N46      -4.59573107049460E-29 -1.80624996211042E-01 -7.57306469012171E-29 -1.53970912473988E+03  1.82192972739033E-28  1.26403298611986E+00
 N47       3.88121326218973E-28 -6.83841040635802E-01 -6.31088724176809E-29 -1.54070092729124E+03 -2.15028427493740E-29 -2.46133370021821E-01
 N48       1.93913412008595E-28 -7.35591798880798E-01 -1.26217744835362E-28 -1.54062525731297E+03 -7.97504478811422E-29  1.32520381105211E-01
 N64      -1.21060585926779E-29  1.75849273807215E-04  4.25296689852552E-30  2.55053345867328E-01 -7.72707167812464E-31  4.40006040873244E-03
 N65       6.15117950112978E-30  1.52597247646696E-02  8.75912938707315E-31  2.35684984066467E-01 -4.13006046924121E-30 -2.33378760186733E-02
 N110      3.22978451673739E-30  3.88889351741057E-02 -6.99497755801444E-31  2.46711103241420E-01  5.94945438887142E-30 -3.16278285168527E-02
 N111     -1.01584137881677E-29  5.63793017615614E-02  1.09319635503308E-29  2.39800763501052E-01  1.19864463060693E-30  1.31220623005777E-03
 N121      2.39243832516643E-30 -2.77021183784633E-02  1.66007457486402E-29  2.14839175986439E-01 -2.62744992663029E-30  4.72964638151025E-02
 N122      5.35982692404322E-30 -9.06736898116815E-03  1.11257121027362E-29  2.03382894892898E-01 -1.19985435535325E-30  6.32992621223794E-02
 N123     -7.56223270984878E-30 -1.12935744223824E-02  5.77250728245710E-30  2.65555265104816E-01  3.65980340339168E-30 -7.64753297841601E-03
 N124     -2.26335287064388E-30 -4.53550807749636E-02  1.24064555157537E-29  2.37554969616128E-01  5.49550868862530E-30  3.13014408603072E-02
 N248      2.27685749141392E-29 -6.06877589380504E-01 -6.31088724176809E-29 -1.54139589220812E+03 -8.31485803417309E-29 -5.43399582536188E-02
 N249     -2.08518123962873E-28  4.75396689460670E-02 -1.06799630245306E-28 -1.54180833342670E+03 -5.56184864185872E-29 -1.10040310318776E-01
 N250     -8.60531619577088E-29 -1.46798635460382E-01 -1.45150406560666E-28 -1.54095479354128E+03  2.98935142248009E-29  3.17140032925329E-01
 N251      1.43929234568241E-28 -2.96742998639998E-01 -5.78497997162075E-29 -1.54134433194285E+03 -4.08949887997964E-29  9.46475225840168E-02
 N302      1.23626044983324E-30 -6.34391229559713E-03  7.80386813465708E-30  2.31570553891226E-01  7.10905279603293E-30 -7.81994997124386E-03
 N303      5.70461151689458E-30  1.23772455485650E-02  4.23820143561855E-30  2.50419240516914E-01  4.01528808470639E-30 -2.23064401171824E-02
 N304     -6.72172496240873E-31 -1.82138797361562E-04  8.16690592917407E-30  2.84694347514698E-01  4.40440467592086E-30  5.75477338790707E-03
 N305      1.86535944763626E-30 -9.66987495377565E-03  9.76193359583066E-30  2.81830219993009E-01  5.24847894039241E-30  1.23035089457911E-02
 

 ------>
 CHAMP AUX NOEUDS DE NOM SYMBOLIQUE  PRAC_NOEU                                   
 NUMERO D'ORDRE: 1 FREQ:   8.00000000000000E+01                                  
 NOEUD        PRES_R       PRES_I  
 N1        3.76157813780656E-14  6.14312329142659E+02
 N2        3.76172768692972E-14  6.14336752367912E+02
 N3       -8.60740558757458E-15 -1.40569600860712E+02
 N4       -8.60775454213001E-15 -1.40575299721080E+02
 N18      -8.60814078768657E-15 -1.40581607589713E+02
 N19      -8.60747154503035E-15 -1.40570678027709E+02
 N28       3.76162419095057E-14  6.14319850191836E+02
 N29       3.76180455486859E-14  6.14349305854995E+02
 N41       3.76167993244458E-14  6.14328953468643E+02
 N42       3.76187779954046E-14  6.14361267617672E+02
 N43       3.76189066930738E-14  6.14363369410111E+02
 N44       3.76177992634620E-14  6.14345283712055E+02
 N45       3.76173865006209E-14  6.14338542783300E+02
 N46       3.76168243926788E-14  6.14329362863955E+02
 N47       3.76173716929881E-14  6.14338300956305E+02
 N48       3.76179194480229E-14  6.14347246474886E+02
 N64      -8.60814290044398E-15 -1.40581642093660E+02
 N65      -8.60793890303368E-15 -1.40578310563125E+02
 N110     -8.60800045690278E-15 -1.40579315814094E+02
 N111     -8.60785143776215E-15 -1.40576882146840E+02
 N121     -8.60781291620869E-15 -1.40576253042131E+02
 N122     -8.60773214890821E-15 -1.40574934012015E+02
 N123     -8.60815576165062E-15 -1.40581852133104E+02
 N124     -8.60783502766682E-15 -1.40576614149646E+02
 N248      3.76197721939330E-14  6.14377504111804E+02
 N249      3.76209783705960E-14  6.14397202471590E+02
 N250      3.76196850960173E-14  6.14376081694894E+02
 N251      3.76196048790616E-14  6.14374771652592E+02
 N302     -8.60780156831874E-15 -1.40576067717024E+02
 N303     -8.60827334014425E-15 -1.40583772335626E+02
 N304     -8.60838391623510E-15 -1.40585578180233E+02
 N305     -8.60832752395980E-15 -1.40584657224487E+02
 
   
   !----------------------------------------------------------------------------------------------------------------!
   ! <EXCEPTION> <MATRICE0_12>                                                                                      !
   !                                                                                                                !
   !  Une des charges renseignées pour l'assemblage des vecteurs est déjà présente dans le mot-clé                  !
   !  CHARGE définissant les conditions de Dirichlet. Il est interdit de renseigner plus d'une fois la même charge. !
   !----------------------------------------------------------------------------------------------------------------!
   

 --------------------------------------------------------------------------------
 ASTER 11.03.00 CONCEPT Pr_6 CALCULE LE 24/06/2016 A 15:50:36 DE TYPE ACOU_HARMO 

                    ENTITES TOPOLOGIQUES SELECTIONNEES 
 GROUP_MA : ENTREE SORTIE                                                        


 ======>

 ------>
 CHAMP AUX NOEUDS DE NOM SYMBOLIQUE  INTE_NOEU                                   
 NUMERO D'ORDRE: 1 FREQ:   9.20000000000000E+01                                  
 NOEUD        INTX_R       INTX_I       INTY_R       INTY_I       INTZ_R       INTZ_I  
 N1        6.91596820797590E-28 -8.90293660448146E-01 -5.04870979341448E-29 -1.88998844509794E+03  5.33836965705032E-28 -1.30670154100227E+00
 N2        1.06286681026887E-28  1.11390451964941E+00  2.52435489670724E-29 -1.89097031178830E+03 -1.66129176258887E-28 -1.34170530592971E+00
 N3       -1.03422438013595E-29  4.33784801623167E-02 -3.73784483606675E-30  2.20281830013011E-01 -5.80802693328859E-30 -5.44311426321922E-02
 N4        4.37648320562555E-30 -4.08482291411078E-02  1.11919640928231E-29  2.34508918264843E-01 -2.86578375724821E-31 -4.05795189922920E-02
 N18       9.63013120442228E-31  2.88127316881468E-02 -1.97754486689681E-30  2.48293483179059E-01  1.45634248310945E-29  2.45726944508811E-02
 N19       6.56819148233823E-30 -3.39516961538706E-02  1.40207699951391E-30  2.01986775925168E-01  2.01375234985129E-30  3.49966482141458E-02
 N28       1.71774462111875E-28 -9.99320693734001E-01  0.00000000000000E+00 -1.89024899044913E+03  1.47541641179617E-28  1.31703166110209E+00
 N29      -4.30100601110502E-28  5.73449130823398E-01  0.00000000000000E+00 -1.89096389358067E+03  1.11341476758926E-28  1.83394407805083E+00
 N41       8.73987008762928E-29 -1.24329319401672E+00  2.33502827945419E-28 -1.89002821599829E+03 -4.70296684979808E-29 -1.60805140429107E+00
 N42      -7.10919804324957E-29  1.00654224418089E-01  1.17803228513004E-28 -1.89226072147441E+03 -1.37610005642401E-28 -1.57300474748139E+00
 N43       1.17373874530736E-28  1.72255121495685E+00  2.27191940703651E-28 -1.89127330685904E+03 -1.94827073174213E-29 -6.76598089895023E-01
 N44      -1.23891221462542E-28  1.71611726513520E+00  1.51461293802434E-28 -1.89058190785086E+03 -1.29381277362012E-28  2.20141583108931E-01
 N45      -7.46548224342824E-29 -5.18348596766206E-01  3.84964121747854E-28 -1.89056236751047E+03  2.59485934011137E-28  1.60635830683202E+00
 N46      -2.05339569182656E-28 -3.16018873685671E-01  5.55358077275592E-28 -1.89032905912114E+03  3.40680058978591E-28  2.19602834135609E+00
 N47       1.01170530669477E-28 -1.19041416561832E+00  1.98342170455569E-28 -1.89204652927160E+03 -4.30056854987479E-29 -4.24683592250144E-01
 N48      -4.94763698993303E-29 -1.27857551792419E+00  2.01948391736579E-28 -1.89191372912670E+03  1.59588718167748E-28  2.30400565453919E-01
 N64      -2.50033855030073E-31  1.60583312846077E-04  3.16186338736534E-30  2.33291600358830E-01 -1.70833998421199E-30  4.02595809274978E-03
 N65      -1.05235701056235E-29  1.39574363999514E-02 -5.07559577543812E-30  2.15572461558529E-01 -7.40712656611331E-30 -2.13454812211661E-02
 N110     -3.01343838631790E-31  3.55696202833522E-02 -1.49554879948150E-30  2.25658041560849E-01  1.94595961580886E-30 -2.89292283801313E-02
 N111      4.72555800804574E-30  5.15674582965574E-02 -6.30549463792381E-31  2.19337283260772E-01  3.63040201929424E-30  1.20040177229478E-03
 N121      3.50105174940434E-30 -2.53373121954949E-02 -4.83023230052319E-31  1.96505302495440E-01  2.52874601698044E-30  4.32599484668836E-02
 N122     -1.14248571713481E-30 -8.29328571217998E-03 -7.35320052767047E-31  1.86026926781187E-01  5.54128563599095E-30  5.78966745333817E-02
 N123     -2.66397381236134E-31 -1.03278260508162E-02  1.95630461093871E-30  2.42896970863931E-01 -1.69982232975556E-30 -6.99597916062150E-03
 N124     -1.10278748615613E-30 -4.14834364991735E-02 -4.78863221372442E-30  2.17281614872300E-01  1.76586109188435E-30  2.86304108738115E-02
 N248     -6.37892649484341E-29 -1.05836288214006E+00  2.22143230910237E-28 -1.89323967133688E+03 -1.16771260680787E-28 -9.29726257989180E-02
 N249     -9.39948627873618E-30  8.02982634358315E-02  1.39810425048401E-28 -1.89395041318470E+03 -1.09090123913320E-28 -1.90523615741089E-01
 N250     -1.80956999459111E-28 -2.57799399681535E-01  1.91129727893548E-28 -1.89247388972581E+03  2.20656545056938E-30  5.54095163652211E-01
 N251     -1.30038236140167E-28 -5.19404495528280E-01  3.38684281974888E-28 -1.89315247929236E+03  2.74438396690997E-29  1.66439953948842E-01
 N302     -3.39679273557115E-30 -5.80280102126792E-03 -3.29468835586324E-30  2.11810119711499E-01 -2.63670040889442E-30 -7.15182475033621E-03
 N303     -4.89012922333789E-30  1.13204165450688E-02 -2.85178866631899E-30  2.29053019408572E-01 -1.71188590210439E-30 -2.04027037330371E-02
 N304     -2.71578014565390E-30 -1.66492776352878E-04  1.26822486837899E-31  2.60404330899526E-01  3.88291475681133E-30  5.26332202268412E-03
 N305     -7.48130926057837E-31 -8.84382652002020E-03 -2.74263429394710E-30  2.57783288025074E-01  2.36311604176314E-31  1.12527700411007E-02
 

 ------>
 CHAMP AUX NOEUDS DE NOM SYMBOLIQUE  PRAC_NOEU                                   
 NUMERO D'ORDRE: 1 FREQ:   9.20000000000000E+01                                  
 NOEUD        PRES_R       PRES_I  
 N1        4.61330416087626E-14  7.53409744603624E+02
 N2        4.61354909741880E-14  7.53449745776649E+02
 N3       -7.67629796870842E-15 -1.25363459473425E+02
 N4       -7.67670953996835E-15 -1.25370180942182E+02
 N18      -7.67716508547809E-15 -1.25377620564937E+02
 N19      -7.67637577443978E-15 -1.25364730137447E+02
 N28       4.61337832662340E-14  7.53421856789307E+02
 N29       4.61367308731051E-14  7.53469994862639E+02
 N41       4.61347025861582E-14  7.53436870423031E+02
 N42       4.61379288029857E-14  7.53489558542246E+02
 N43       4.61381416554212E-14  7.53493034686317E+02
 N44       4.61363373569307E-14  7.53463568255805E+02
 N45       4.61356476200678E-14  7.53452303998006E+02
 N46       4.61347391528945E-14  7.53437467603153E+02
 N47       4.61356232734055E-14  7.53451906386836E+02
 N48       4.61365133665211E-14  7.53466442710553E+02
 N64      -7.67716757714298E-15 -1.25377661256913E+02
 N65      -7.67692697634675E-15 -1.25373731947721E+02
 N110     -7.67699957348706E-15 -1.25374917548996E+02
 N111     -7.67682382457389E-15 -1.25372047351429E+02
 N121     -7.67677839126854E-15 -1.25371305369245E+02
 N122     -7.67668313279707E-15 -1.25369749680347E+02
 N123     -7.67718275831081E-15 -1.25377909184198E+02
 N124     -7.67680448024276E-15 -1.25371731434527E+02
 N248      4.61395413236577E-14  7.53515893003302E+02
 N249      4.61415100091614E-14  7.53548044077475E+02
 N250      4.61394000820597E-14  7.53513586352960E+02
 N251      4.61392607143776E-14  7.53511310305984E+02
 N302     -7.67676498670252E-15 -1.25371086456069E+02
 N303     -7.67732141258909E-15 -1.25380173580405E+02
 N304     -7.67745183951414E-15 -1.25382303613736E+02
 N305     -7.67738532762744E-15 -1.25381217392194E+02
 
   
   !----------------------------------------------------------------------------------------------------------------!
   ! <EXCEPTION> <MATRICE0_12>                                                                                      !
   !                                                                                                                !
   !  Une des charges renseignées pour l'assemblage des vecteurs est déjà présente dans le mot-clé                  !
   !  CHARGE définissant les conditions de Dirichlet. Il est interdit de renseigner plus d'une fois la même charge. !
   !----------------------------------------------------------------------------------------------------------------!
   

 --------------------------------------------------------------------------------
 ASTER 11.03.00 CONCEPT Pr_7 CALCULE LE 24/06/2016 A 15:50:36 DE TYPE ACOU_HARMO 

                    ENTITES TOPOLOGIQUES SELECTIONNEES 
 GROUP_MA : ENTREE SORTIE                                                        


 ======>

 ------>
 CHAMP AUX NOEUDS DE NOM SYMBOLIQUE  INTE_NOEU                                   
 NUMERO D'ORDRE: 1 FREQ:   1.04000000000000E+02                                  
 NOEUD        INTX_R       INTX_I       INTY_R       INTY_I       INTZ_R       INTZ_I  
 N1        3.68361064883280E-28 -1.42107876053241E+00  4.29140332440230E-28 -2.24383406757333E+03  5.81784917600496E-29 -2.07852049098751E+00
 N2        3.74191240010929E-28  1.77230746418594E+00  2.52435489670724E-29 -2.24538869145302E+03 -1.29052713713500E-28 -2.13693392442447E+00
 N3       -5.31113700763668E-30  4.06540106094220E-02  1.41440295115799E-30  2.06448398700656E-01 -4.04291213925769E-30 -5.10125823389936E-02
 N4       -9.13237461029539E-30 -3.82832905136569E-02  3.95508973379363E-30  2.19787200200645E-01  2.99790255143317E-30 -3.80325893387156E-02
 N18      -3.43056271343976E-31  2.70047311748728E-02 -2.08616731576025E-30  2.32710424683949E-01  1.38298621894017E-30  2.30304087238518E-02
 N19       3.26445125573636E-30 -3.18191655469990E-02  4.75935807856974E-30  1.89302830419595E-01 -2.87387266301463E-30  3.27993983394497E-02
 N28       4.35303308262270E-28 -1.59322590187408E+00 -6.81575822110954E-28 -2.24424837830662E+03 -5.49441620486435E-28  2.09844948542536E+00
 N29      -4.20762537182146E-28  9.09174465985107E-01 -8.83524213847533E-29 -2.24537659271603E+03 -3.24904381618127E-29  2.92820267793763E+00
 N41       5.77378389887738E-29 -1.98465069305635E+00  3.34477023813709E-28 -2.24389175243832E+03 -1.18914618486245E-28 -2.56025893934419E+00
 N42       4.70378857990768E-29  1.57227367943506E-01 -2.94508071282511E-29 -2.24743877078052E+03 -3.68689756927122E-29 -2.50577704485324E+00
 N43      -1.31157369956726E-28  2.74270162838558E+00 -2.58746376912492E-28 -2.24586366014134E+03  1.24102303384447E-28 -1.07719592959051E+00
 N44      -4.32788814126878E-28  2.73147290588081E+00 -1.64083068285970E-28 -2.24476689255582E+03  2.12445480305467E-29  3.52376941063752E-01
 N45       1.85381542354960E-28 -8.28152696056050E-01 -3.34477023813709E-28 -2.24474144907349E+03 -2.81364498179376E-28  2.56044512437686E+00
 N46       1.27889452027090E-29 -5.06280315475671E-01  5.67979851759128E-29 -2.24437371321338E+03 -1.27462665951414E-28  3.50136161585022E+00
 N47       5.97711807974880E-29 -1.90062498727229E+00  1.94735949174558E-28 -2.24710607911432E+03  1.55859897689135E-28 -6.74022425080111E-01
 N48       9.22782369833923E-29 -2.03930553602645E+00 -3.21855249330173E-28 -2.24689280128193E+03 -8.60012461086454E-29  3.67456912802945E-01
 N64      -1.78578644210066E-30  1.50225204734636E-04  4.40858203803201E-30  2.18649980352009E-01  1.24991248449111E-30  3.77469662519189E-03
 N65       1.63761823171247E-30  1.30811403839827E-02  4.81944709283462E-30  2.02039355855443E-01 -3.30686986276149E-30 -2.00045850558737E-02
 N110     -4.04856153376122E-30  3.33359312869625E-02  5.23852944873328E-30  2.11492205788012E-01  9.94132938460285E-31 -2.71135560613139E-02
 N111     -4.16771239965398E-31  4.83295046316124E-02 -2.07075987620516E-30  2.05568119040330E-01  1.79206878545571E-30  1.12523172624071E-03
 N121      1.20895437434048E-30 -2.37458385792196E-02  8.43557315641609E-32  1.84168911968534E-01 -4.57793547780846E-31  4.05437674521306E-02
 N122      6.27992791791207E-30 -7.77232679175715E-03 -3.94045266621628E-31  1.74348627445972E-01 -2.01779680273451E-30  5.42611554673171E-02
 N123     -1.85544090842266E-30 -9.67734058076668E-03  3.20166593954934E-30  2.27651973966904E-01  9.07078612200238E-33 -6.55791896700389E-03
 N124      5.82593808177139E-32 -3.88779255064489E-02  3.58954823034893E-30  2.03639875223470E-01 -1.96769855005613E-30  2.68331989221638E-02
 N248      5.90463928301883E-29 -1.69190475166626E+00  1.00974195868290E-29 -2.24899279306075E+03  2.04432369512002E-28 -1.46751857115075E-01
 N249     -7.05765028137395E-29  1.25522794342892E-01 -1.45635859425418E-28 -2.25011965857183E+03  1.97533567710214E-28 -3.03143560619080E-01
 N250     -1.69299807213047E-28 -4.14059625426080E-01 -6.49119830581861E-29 -2.24777236303252E+03 -5.83402698753781E-30  8.86775793194714E-01
 N251      7.86329230185574E-29 -8.32372851965684E-01 -4.20725816117873E-29 -2.24885636512140E+03  5.65125021728439E-29  2.67457509280288E-01
 N302      4.96288072544286E-31 -5.43878858785483E-03  6.10673866766305E-30  1.98514248350549E-01 -9.70187209485070E-31 -6.70199716584623E-03
 N303     -1.56064372696902E-30  1.06091095030993E-02  4.57896264044547E-30  2.14677557840303E-01  6.16993725631730E-31 -1.91216750146934E-02
 N304      2.37225894278429E-30 -1.55930755469713E-04 -5.31941850639755E-31  2.44061909918558E-01 -6.25364499270226E-31  4.93252167293032E-03
 N305      2.06577653247405E-30 -8.28771941708332E-03  2.04808892943123E-30  2.41603989437420E-01 -2.57872045987667E-30  1.05454954072998E-02
 

 ------>
 CHAMP AUX NOEUDS DE NOM SYMBOLIQUE  PRAC_NOEU                                   
 NUMERO D'ORDRE: 1 FREQ:   1.04000000000000E+02                                  
 NOEUD        PRES_R       PRES_I  
 N1        5.47061016625135E-14  8.93418440330747E+02
 N2        5.47098382554451E-14  8.93479463524278E+02
 N3       -6.98952884976559E-15 -1.14147668611587E+02
 N4       -6.99000773693592E-15 -1.14155489432589E+02
 N18      -6.99053777967329E-15 -1.14164145687400E+02
 N19      -6.98961939820025E-15 -1.14149147379747E+02
 N28       5.47072204739058E-14  8.93436711907385E+02
 N29       5.47117104257151E-14  8.93510038385068E+02
 N41       5.47086290418046E-14  8.93459715566886E+02
 N42       5.47135357669272E-14  8.93539848469304E+02
 N43       5.47138627068492E-14  8.93545187803423E+02
 N44       5.47111201546647E-14  8.93500398527259E+02
 N45       5.47100539578146E-14  8.93482986211303E+02
 N46       5.47086806695840E-14  8.93460558712508E+02
 N47       5.47100163722577E-14  8.93482372392578E+02
 N48       5.47113671569162E-14  8.93504432380149E+02
 N64      -6.99054067865282E-15 -1.14164193031329E+02
 N65      -6.99026072835145E-15 -1.14159621095950E+02
 N110     -6.99034519668608E-15 -1.14161000568541E+02
 N111     -6.99014071627050E-15 -1.14157661149931E+02
 N121     -6.99008785273188E-15 -1.14156797822829E+02
 N122     -6.98997701630519E-15 -1.14154987726615E+02
 N123     -6.99055835890288E-15 -1.14164481771724E+02
 N124     -6.99011822180624E-15 -1.14157293787451E+02
 N248      5.47159794327653E-14  8.93579756561003E+02
 N249      5.47189757206149E-14  8.93628689655046E+02
 N250      5.47157656012991E-14  8.93576264428148E+02
 N251      5.47155447529549E-14  8.93572657700979E+02
 N302     -6.99007222873493E-15 -1.14156542663595E+02
 N303     -6.99071966127855E-15 -1.14167116039430E+02
 N304     -6.99087143247425E-15 -1.14169594651154E+02
 N305     -6.99079404131049E-15 -1.14168330757534E+02
 
   
   !----------------------------------------------------------------------------------------------------------------!
   ! <EXCEPTION> <MATRICE0_12>                                                                                      !
   !                                                                                                                !
   !  Une des charges renseignées pour l'assemblage des vecteurs est déjà présente dans le mot-clé                  !
   !  CHARGE définissant les conditions de Dirichlet. Il est interdit de renseigner plus d'une fois la même charge. !
   !----------------------------------------------------------------------------------------------------------------!
   

 --------------------------------------------------------------------------------
 ASTER 11.03.00 CONCEPT Pr_8 CALCULE LE 24/06/2016 A 15:50:36 DE TYPE ACOU_HARMO 

                    ENTITES TOPOLOGIQUES SELECTIONNEES 
 GROUP_MA : ENTREE SORTIE                                                        


 ======>

 ------>
 CHAMP AUX NOEUDS DE NOM SYMBOLIQUE  INTE_NOEU                                   
 NUMERO D'ORDRE: 1 FREQ:   1.16000000000000E+02                                  
 NOEUD        INTX_R       INTX_I       INTY_R       INTY_I       INTZ_R       INTZ_I  
 N1       -3.61298294591223E-28 -2.14019559156377E+00 -2.77679038637796E-28 -2.60670918213856E+03 -3.08543221554568E-28 -3.12211220820810E+00
 N2       -6.03725111526956E-28  2.66264737212362E+00 -8.83524213847533E-28 -2.60903587389530E+03  2.85690907206447E-28 -3.21302730123663E+00
 N3        1.39668439566962E-30  3.88952803293317E-02 -7.80386813465708E-31  1.97519177743581E-01  1.49895127571659E-30 -4.88058296112336E-02
 N4       -2.57419796366798E-30 -3.66277787460257E-02  1.44367708631267E-30  2.10286592640372E-01  1.50338091458868E-30 -3.63891376672117E-02
 N18      -1.42855853624923E-31  2.58382413561579E-02 -1.39899551160289E-30  2.22655502312607E-01  2.34842480740611E-30  2.20352211246478E-02
 N19      -6.54508032300558E-30 -3.04425013028927E-02  2.11081921904841E-30  1.81115807264305E-01  3.03642115032092E-30  3.13813078939414E-02
 N28       9.51514163116269E-28 -2.39732204807018E+00  4.79627430374375E-28 -2.60733123523342E+03  3.63615573500310E-29  3.15592350263811E+00
 N29       3.96163789560454E-29  1.36223607373896E+00  3.15544362088405E-29 -2.60901536065284E+03  2.59938142362079E-28  4.41091445304655E+00
 N41      -6.20180256971800E-29 -2.98912046001099E+00 -5.67979851759128E-29 -2.60678929363900E+03  1.96105890657286E-28 -3.84848247527708E+00
 N42       4.15877608471202E-29  2.32831744844815E-01 -1.38839519318898E-28 -2.61211220677657E+03  1.65726528505181E-28 -3.76814453644435E+00
 N43      -5.68090785323925E-28  4.12285751622784E+00 -8.33037115913388E-28 -2.60974106680364E+03  2.59940453478012E-28 -1.61921769243623E+00
 N44      -1.69112056556754E-29  4.10481852100367E+00 -4.10207670714926E-28 -2.60809722466287E+03  2.12680443758682E-28  5.31733612148747E-01
 N45       2.60491269442107E-28 -1.24814111889832E+00  6.18466949693273E-28 -2.60806548454576E+03  3.20696609875629E-28  3.85192388564930E+00
 N46      -1.06057110177516E-28 -7.64603448273489E-01  4.35451219681999E-28 -2.60751705700860E+03  5.91337530124657E-28  5.26860738087948E+00
 N47      -8.83858775392158E-29 -2.86300694131531E+00 -3.17347472728910E-28 -2.61162182169172E+03  8.95612450709904E-29 -1.01078889157405E+00
 N48       5.42452805904242E-28 -3.06953977148557E+00  8.20415341429852E-29 -2.61129901294311E+03  6.60424489089716E-29  5.52934389779566E-01
 N64      -3.06084836178223E-30  1.43434038465913E-04  3.87317351349236E-30  2.09202481707323E-01  1.48729939955304E-30  3.61311565699619E-03
 N65       3.35265884718930E-30  1.25155901852848E-02 -2.61849435238889E-30  1.93305754677872E-01 -1.28170637798971E-31 -1.91388967176311E-02
 N110      1.23593344297810E-30  3.18941423907089E-02  1.42775606543907E-30  2.02350433082738E-01  4.01652689901958E-31 -2.59419753890711E-02
 N111     -3.26252532579198E-31  4.62396281743866E-02  2.12430072865912E-30  1.96682289607889E-01 -9.70412904400428E-31  1.07679551961597E-03
 N121     -2.03230146262817E-30 -2.27184488533541E-02  2.23793059537797E-31  1.76207509234181E-01  5.35312228042432E-31  3.87907144315289E-02
 N122      2.69430376982483E-30 -7.43599943400130E-03 -1.07882891764795E-29  1.66812033664252E-01  5.26539617145748E-30  5.19146217303605E-02
 N123     -2.83476252850111E-30 -9.25672867803738E-03  1.70560355874934E-30  2.17814941539854E-01 -9.77495425791897E-31 -6.27564985577129E-03
 N124     -4.90438060338210E-30 -3.71959627529694E-02  1.75529255131453E-30  1.94835654272782E-01  1.49897534984089E-31  2.56734207761082E-02
 N248     -7.33112166678801E-29 -2.55105886919992E+00  1.00974195868290E-28 -2.61444270456115E+03  2.06990158552544E-28 -2.19219112986929E-01
 N249     -6.24148265251067E-29  1.85985876264187E-01 -1.41752236507406E-28 -2.61613102586103E+03  9.25394523432341E-31 -4.55536917784801E-01
 N250     -1.15951025001107E-29 -6.26542922081586E-01 -3.78653234506086E-29 -2.61260682185281E+03  2.24962484200029E-28  1.33807633139624E+00
 N251     -5.99463911277918E-29 -1.25739026192189E+00  1.93533875414222E-28 -2.61424036636866E+03  2.09894794736537E-28  4.04711657202982E-01
 N302      2.44593102937179E-32 -5.20397797072871E-03  3.87708957104594E-30  1.89934148770093E-01  3.33643288740784E-31 -6.41137013702148E-03
 N303      2.27236863019604E-30  1.01498206484609E-02  1.92759908367237E-30  2.05401852156034E-01  1.41074769661770E-30 -1.82948843057123E-02
 N304      1.10054671180482E-30 -1.49072051195329E-04  1.08237262874563E-31  2.33517288791132E-01  3.52347002534683E-31  4.71889453594900E-03
 N305     -4.07767517475388E-31 -7.92848337656800E-03  7.97555103255674E-31  2.31164092328644E-01 -1.18355789277918E-30  1.00887286845086E-02
 

 ------>
 CHAMP AUX NOEUDS DE NOM SYMBOLIQUE  PRAC_NOEU                                   
 NUMERO D'ORDRE: 1 FREQ:   1.16000000000000E+02                                  
 NOEUD        PRES_R       PRES_I  
 N1        6.34673100344695E-14  1.03649983127638E+03
 N2        6.34727310140117E-14  1.03658836259081E+03
 N3       -6.47347031453555E-15 -1.05719793152486E+02
 N4       -6.47402210342453E-15 -1.05728804548904E+02
 N18      -6.47463282100076E-15 -1.05738778323818E+02
 N19      -6.47357466908952E-15 -1.05721497391684E+02
 N28       6.34689198314421E-14  1.03652612125605E+03
 N29       6.34754262797443E-14  1.03663237962061E+03
 N41       6.34709694865587E-14  1.03655959466435E+03
 N42       6.34780715766728E-14  1.03667558059791E+03
 N43       6.34785484673103E-14  1.03668336881306E+03
 N44       6.34745808320276E-14  1.03661857241159E+03
 N45       6.34730188318796E-14  1.03659306301330E+03
 N46       6.34710404383074E-14  1.03656075339434E+03
 N47       6.34729633612571E-14  1.03659215710929E+03
 N48       6.34749154911875E-14  1.03662403781043E+03
 N64      -6.47463616110575E-15 -1.05738832871873E+02
 N65      -6.47431359711241E-15 -1.05733565002091E+02
 N110     -6.47441092071458E-15 -1.05735154417132E+02
 N111     -6.47417532961058E-15 -1.05731306922423E+02
 N121     -6.47411441953300E-15 -1.05730312185368E+02
 N122     -6.47398671336141E-15 -1.05728226585312E+02
 N123     -6.47465655361478E-15 -1.05739165906818E+02
 N124     -6.47414942861354E-15 -1.05730883927041E+02
 N248      6.34815989000046E-14  1.03673318615952E+03
 N249      6.34859381902095E-14  1.03680405214648E+03
 N250      6.34812907190192E-14  1.03672815318208E+03
 N251      6.34809612504921E-14  1.03672277255271E+03
 N302     -6.47409638222408E-15 -1.05730017613758E+02
 N303     -6.47484237254174E-15 -1.05742200560191E+02
 N304     -6.47501726339049E-15 -1.05745056744503E+02
 N305     -6.47492808994818E-15 -1.05743600431672E+02
 
   
   !----------------------------------------------------------------------------------------------------------------!
   ! <EXCEPTION> <MATRICE0_12>                                                                                      !
   !                                                                                                                !
   !  Une des charges renseignées pour l'assemblage des vecteurs est déjà présente dans le mot-clé                  !
   !  CHARGE définissant les conditions de Dirichlet. Il est interdit de renseigner plus d'une fois la même charge. !
   !----------------------------------------------------------------------------------------------------------------!
   

 --------------------------------------------------------------------------------
 ASTER 11.03.00 CONCEPT Pr_9 CALCULE LE 24/06/2016 A 15:50:36 DE TYPE ACOU_HARMO 

                    ENTITES TOPOLOGIQUES SELECTIONNEES 
 GROUP_MA : ENTREE SORTIE                                                        


 ======>

 ------>
 CHAMP AUX NOEUDS DE NOM SYMBOLIQUE  INTE_NOEU                                   
 NUMERO D'ORDRE: 1 FREQ:   1.28000000000000E+02                                  
 NOEUD        INTX_R       INTX_I       INTY_R       INTY_I       INTZ_R       INTZ_I  
 N1       -7.07065890110908E-28 -3.09247044919345E+00  5.04870979341448E-29 -2.98356843954756E+03  1.37636506438436E-27 -4.50152000843139E+00
 N2       -4.34810270196506E-28  3.83959847483269E+00 -7.57306469012171E-29 -2.98691266695504E+03  6.46718030861501E-28 -4.63645491906289E+00
 N3        1.65071455533430E-30  3.78893591526619E-02  1.37126212040371E-30  1.92412962076763E-01  4.90495838236541E-30 -4.75437044442315E-02
 N4       -2.38930868900680E-30 -3.56812123287613E-02 -3.35882182301134E-30  2.04856299429159E-01 -2.16898230336891E-30 -3.54500535917170E-02
 N18      -3.90679704043812E-30  2.51719064717683E-02  2.62619807216643E-30  2.16910462941263E-01 -3.42893771004919E-31  2.14665621201512E-02
 N19       7.11823707445522E-31 -2.96550403061152E-02 -2.10927847509290E-30  1.76434326777043E-01 -2.55724978015737E-30  3.05706272706874E-02
 N28       3.69532030289468E-28 -3.46147429229966E+00  0.00000000000000E+00 -2.98446482391722E+03 -1.71429335465841E-28  4.55474599574935E+00
 N29      -7.64760588268928E-28  1.96000619412775E+00 -7.19441145561563E-28 -2.98688005564420E+03 -7.66889896415442E-29  6.37457409719621E+00
 N41      -2.31025311664960E-28 -4.31935983518725E+00  6.31088724176809E-29 -2.98367594405904E+03  8.64801093300178E-28 -5.55214036915946E+00
 N42       5.37123886143453E-29  3.31655853958310E-01 -1.59875810124792E-28 -2.99134431434083E+03  3.73550290525437E-28 -5.43816362415533E+00
 N43      -4.22471992600784E-28  5.94810066463068E+00  1.00974195868290E-28 -2.98791925407646E+03  4.42193515231309E-29 -2.33613544862635E+00
 N44      -9.38436328421902E-28  5.92064555859143E+00 -2.27191940703651E-28 -2.98555360544442E+03  2.23977948812458E-28  7.69458881494197E-01
 N45      -1.23125471716654E-28 -1.80463458449739E+00 -1.32528632077130E-28 -2.98551559946301E+03  3.33552577440403E-28  5.56071417789733E+00
 N46      -2.76548132574452E-29 -1.10736676784402E+00 -5.30114528308520E-28 -2.98472968202070E+03 -8.72430857367863E-29  7.60728334105124E+00
 N47      -4.96756981459174E-28 -4.13764748665217E+00  1.58673736364455E-28 -2.99064863842757E+03  4.64133709157769E-28 -1.45549515066869E+00
 N48      -3.65372021609591E-28 -4.43330686638956E+00  9.46633086265214E-29 -2.99018013272248E+03  1.73007057276283E-28  7.98249355861666E-01
 N64      -1.19572965538902E-30  1.39408978373928E-04  3.98025521840029E-31  2.03804453104754E-01  2.35064564537323E-30  3.52152782985591E-03
 N65       1.46438083321483E-30  1.21922887607136E-02  1.11395787983358E-30  1.88313780815989E-01  4.51880942851577E-30 -1.86436264394292E-02
 N110     -1.88278911363296E-30  3.10696698334079E-02 -3.54781974822054E-30  1.97125372927802E-01 -1.30600519412139E-30 -2.52725415858706E-02
 N111     -2.18477492891288E-30  4.50447409703803E-02 -1.64859603239547E-30  1.91603456581132E-01 -2.67763996190757E-30  1.04921206186497E-03
 N121      3.26782163313904E-31 -2.21307656191002E-02 -7.65749745888365E-31  1.71656773540554E-01  4.65689860552834E-31  3.77884809425284E-02
 N122      1.33855742253559E-30 -7.24359083057860E-03  3.68815584350156E-30  1.62504258197829E-01 -1.35209911745706E-30  5.05729158385324E-02
 N123     -3.13390071879183E-31 -9.01520975550078E-03 -4.86654983661735E-31  2.12194068670443E-01 -1.10317611130562E-30 -6.11489224839643E-03
 N124     -2.73106495763832E-30 -3.62339174128110E-02 -2.66818334495408E-30  1.89802626270046E-01 -5.87890115524204E-31  2.50105857673605E-02
 N248      1.01224412686664E-28 -3.68980931194403E+00  5.55358077275592E-29 -2.99469974813065E+03  2.42002149382995E-29 -3.14730888903111E-01
 N249     -2.00270166012731E-28  2.65048331678446E-01  1.24275933376356E-28 -2.99712870268258E+03  5.86497223729040E-29 -6.57147165936393E-01
 N250     -3.24765948525053E-28 -9.08887247005706E-01 -2.18176387501126E-28 -2.99204947856123E+03  5.01391099064789E-29  1.93637491932633E+00
 N251     -1.02674663613854E-28 -1.82145504632273E+00 -1.38839519318898E-28 -2.99441109190781E+03  1.54786764938575E-28  5.86904679483261E-01
 N302      6.16580453164497E-31 -5.06990578496660E-03  1.70367762880495E-30  1.85030455233009E-01  1.20234602721880E-30 -6.24480731190785E-03
 N303      3.46923177560441E-31  9.88696771067877E-03 -1.42505976351693E-30  2.00102054349309E-01  3.26792695743288E-31 -1.78221997520591E-02
 N304      8.23435485462878E-31 -1.45094482676336E-04  9.45342713202475E-31  2.27492825756013E-01 -1.32712823202186E-30  4.59659508766285E-03
 N305      2.50943513012734E-31 -7.72267676337651E-03  1.09678959004361E-30  2.25198751183235E-01 -1.80598405919898E-30  9.82721050839113E-03
 

 ------>
 CHAMP AUX NOEUDS DE NOM SYMBOLIQUE  PRAC_NOEU                                   
 NUMERO D'ORDRE: 1 FREQ:   1.28000000000000E+02                                  
 NOEUD        PRES_R       PRES_I  
 N1        7.25302353921920E-14  1.18450863453349E+03
 N2        7.25378112291535E-14  1.18463235734021E+03
 N3       -6.08242419283040E-15 -9.93335253407793E+01
 N4       -6.08305546664619E-15 -9.93438348245625E+01
 N18      -6.08375413941985E-15 -9.93552450168586E+01
 N19      -6.08254360710815E-15 -9.93354755239315E+01
 N28       7.25324702768925E-14  1.18454513297046E+03
 N29       7.25415542833228E-14  1.18469348605376E+03
[...]
 * ASSEMBLAGE               :       0.06 :       0.00 :       0.06 :       0.06 *
 * DYNA_VIBRA               :       0.03 :       0.00 :       0.03 :       0.04 *
 * CALC_CHAMP               :       0.06 :       0.00 :       0.06 :       0.06 *
 * IMPR_RESU                :       0.01 :       0.00 :       0.01 :       0.01 *
 * DETRUIRE                 :       0.02 :       0.00 :       0.02 :       0.01 *
 * ASSEMBLAGE               :       0.06 :       0.00 :       0.06 :       0.07 *
 * DYNA_VIBRA               :       0.03 :       0.01 :       0.04 :       0.03 *
 * CALC_CHAMP               :       0.05 :       0.01 :       0.06 :       0.06 *
 * IMPR_RESU                :       0.00 :       0.00 :       0.00 :       0.01 *
 * DETRUIRE                 :       0.02 :       0.00 :       0.02 :       0.01 *
 * ASSEMBLAGE               :       0.06 :       0.00 :       0.06 :       0.06 *
 * DYNA_VIBRA               :       0.03 :       0.00 :       0.03 :       0.04 *
 * CALC_CHAMP               :       0.06 :       0.00 :       0.06 :       0.06 *
 * IMPR_RESU                :       0.01 :       0.00 :       0.01 :       0.00 *
 * DETRUIRE                 :       0.01 :       0.00 :       0.01 :       0.02 *
 * ASSEMBLAGE               :       0.06 :       0.01 :       0.07 :       0.06 *
 * DYNA_VIBRA               :       0.03 :       0.00 :       0.03 :       0.03 *
 * CALC_CHAMP               :       0.06 :       0.00 :       0.06 :       0.07 *
 * IMPR_RESU                :       0.01 :       0.00 :       0.01 :       0.00 *
 * DETRUIRE                 :       0.01 :       0.00 :       0.01 :       0.02 *
 * ASSEMBLAGE               :       0.06 :       0.00 :       0.06 :       0.06 *
 * DYNA_VIBRA               :       0.02 :       0.01 :       0.03 :       0.03 *
 * CALC_CHAMP               :       0.06 :       0.00 :       0.06 :       0.06 *
 * IMPR_RESU                :       0.01 :       0.00 :       0.01 :       0.01 *
 * DETRUIRE                 :       0.01 :       0.00 :       0.01 :       0.02 *
 * ASSEMBLAGE               :       0.06 :       0.00 :       0.06 :       0.06 *
 * DYNA_VIBRA               :       0.03 :       0.00 :       0.03 :       0.03 *
 * CALC_CHAMP               :       0.06 :       0.00 :       0.06 :       0.06 *
 * IMPR_RESU                :       0.01 :       0.00 :       0.01 :       0.01 *
 * DETRUIRE                 :       0.01 :       0.00 :       0.01 :       0.01 *
 * ASSEMBLAGE               :       0.06 :       0.01 :       0.07 :       0.07 *
 * DYNA_VIBRA               :       0.03 :       0.01 :       0.04 :       0.03 *
 * CALC_CHAMP               :       0.06 :       0.00 :       0.06 :       0.06 *
 * IMPR_RESU                :       0.01 :       0.00 :       0.01 :       0.01 *
 * DETRUIRE                 :       0.01 :       0.00 :       0.01 :       0.01 *
 * ASSEMBLAGE               :       0.06 :       0.00 :       0.06 :       0.07 *
 * DYNA_VIBRA               :       0.03 :       0.00 :       0.03 :       0.02 *
 * CALC_CHAMP               :       0.06 :       0.00 :       0.06 :       0.07 *
 * IMPR_RESU                :       0.01 :       0.00 :       0.01 :       0.00 *
 * DETRUIRE                 :       0.01 :       0.00 :       0.01 :       0.02 *
 * ASSEMBLAGE               :       0.06 :       0.00 :       0.06 :       0.06 *
 * DYNA_VIBRA               :       0.03 :       0.00 :       0.03 :       0.03 *
 * CALC_CHAMP               :       0.07 :       0.00 :       0.07 :       0.06 *
 * IMPR_RESU                :       0.00 :       0.00 :       0.00 :       0.00 *
 * DETRUIRE                 :       0.02 :       0.00 :       0.02 :       0.02 *
 * ASSEMBLAGE               :       0.06 :       0.00 :       0.06 :       0.06 *
 * DYNA_VIBRA               :       0.03 :       0.00 :       0.03 :       0.03 *
 * CALC_CHAMP               :       0.05 :       0.02 :       0.07 :       0.06 *
 * IMPR_RESU                :       0.01 :       0.00 :       0.01 :       0.01 *
 * DETRUIRE                 :       0.01 :       0.00 :       0.01 :       0.01 *
 * ASSEMBLAGE               :       0.06 :       0.00 :       0.06 :       0.06 *
 * DYNA_VIBRA               :       0.03 :       0.00 :       0.03 :       0.03 *
 * CALC_CHAMP               :       0.07 :       0.00 :       0.07 :       0.06 *
 * IMPR_RESU                :       0.00 :       0.00 :       0.00 :       0.01 *
 * DETRUIRE                 :       0.02 :       0.00 :       0.02 :       0.01 *
 * ASSEMBLAGE               :       0.06 :       0.00 :       0.06 :       0.07 *
 * DYNA_VIBRA               :       0.03 :       0.00 :       0.03 :       0.03 *
 * CALC_CHAMP               :       0.07 :       0.00 :       0.07 :       0.06 *
 * IMPR_RESU                :       0.00 :       0.00 :       0.00 :       0.01 *
 * DETRUIRE                 :       0.01 :       0.00 :       0.01 :       0.01 *
 * ASSEMBLAGE               :       0.07 :       0.00 :       0.07 :       0.07 *
 * DYNA_VIBRA               :       0.03 :       0.00 :       0.03 :       0.03 *
 * CALC_CHAMP               :       0.05 :       0.01 :       0.06 :       0.06 *
 * IMPR_RESU                :       0.00 :       0.01 :       0.01 :       0.01 *
 * DETRUIRE                 :       0.02 :       0.00 :       0.02 :       0.01 *
 * ASSEMBLAGE               :       0.06 :       0.00 :       0.06 :       0.06 *
 * DYNA_VIBRA               :       0.03 :       0.00 :       0.03 :       0.04 *
 * CALC_CHAMP               :       0.06 :       0.00 :       0.06 :       0.06 *
 * IMPR_RESU                :       0.01 :       0.00 :       0.01 :       0.00 *
 * DETRUIRE                 :       0.01 :       0.00 :       0.01 :       0.02 *
 * ASSEMBLAGE               :       0.07 :       0.00 :       0.07 :       0.06 *
 * DYNA_VIBRA               :       0.03 :       0.00 :       0.03 :       0.03 *
 * CALC_CHAMP               :       0.06 :       0.00 :       0.06 :       0.06 *
 * IMPR_RESU                :       0.00 :       0.00 :       0.00 :       0.01 *
 * DETRUIRE                 :       0.02 :       0.00 :       0.02 :       0.01 *
 * ASSEMBLAGE               :       0.06 :       0.00 :       0.06 :       0.07 *
 * DYNA_VIBRA               :       0.03 :       0.00 :       0.03 :       0.03 *
 * CALC_CHAMP               :       0.06 :       0.00 :       0.06 :       0.06 *
 * IMPR_RESU                :       0.01 :       0.00 :       0.01 :       0.01 *
 * DETRUIRE                 :       0.01 :       0.00 :       0.01 :       0.01 *
 * ASSEMBLAGE               :       0.07 :       0.00 :       0.07 :       0.06 *
 * DYNA_VIBRA               :       0.03 :       0.00 :       0.03 :       0.02 *
 * CALC_CHAMP               :       0.05 :       0.01 :       0.06 :       0.07 *
 * IMPR_RESU                :       0.00 :       0.00 :       0.00 :       0.00 *
 * DETRUIRE                 :       0.02 :       0.00 :       0.02 :       0.01 *
 * ASSEMBLAGE               :       0.06 :       0.00 :       0.06 :       0.06 *
 * DYNA_VIBRA               :       0.03 :       0.00 :       0.03 :       0.03 *
 * CALC_CHAMP               :       0.07 :       0.00 :       0.07 :       0.07 *
 * IMPR_RESU                :       0.00 :       0.00 :       0.00 :       0.00 *
 * DETRUIRE                 :       0.02 :       0.00 :       0.02 :       0.02 *
 * ASSEMBLAGE               :       0.06 :       0.00 :       0.06 :       0.06 *
 * DYNA_VIBRA               :       0.03 :       0.00 :       0.03 :       0.03 *
 * CALC_CHAMP               :       0.05 :       0.01 :       0.06 :       0.06 *
 * IMPR_RESU                :       0.01 :       0.00 :       0.01 :       0.01 *
 * DETRUIRE                 :       0.01 :       0.00 :       0.01 :       0.01 *
 * ASSEMBLAGE               :       0.06 :       0.01 :       0.07 :       0.06 *
 * DYNA_VIBRA               :       0.03 :       0.00 :       0.03 :       0.03 *
 * CALC_CHAMP               :       0.06 :       0.00 :       0.06 :       0.06 *
 * IMPR_RESU                :       0.01 :       0.00 :       0.01 :       0.01 *
 * DETRUIRE                 :       0.01 :       0.00 :       0.01 :       0.01 *
 * ASSEMBLAGE               :       0.06 :       0.01 :       0.07 :       0.07 *
 * DYNA_VIBRA               :       0.03 :       0.00 :       0.03 :       0.03 *
 * CALC_CHAMP               :       0.05 :       0.01 :       0.06 :       0.06 *
 * IMPR_RESU                :       0.01 :       0.00 :       0.01 :       0.01 *
 * DETRUIRE                 :       0.01 :       0.00 :       0.01 :       0.01 *
 * ASSEMBLAGE               :       0.06 :       0.00 :       0.06 :       0.06 *
 * DYNA_VIBRA               :       0.03 :       0.00 :       0.03 :       0.04 *
 * CALC_CHAMP               :       0.07 :       0.00 :       0.07 :       0.06 *
 * IMPR_RESU                :       0.00 :       0.00 :       0.00 :       0.00 *
 * DETRUIRE                 :       0.02 :       0.00 :       0.02 :       0.01 *
 * ASSEMBLAGE               :       0.06 :       0.00 :       0.06 :       0.07 *
 * DYNA_VIBRA               :       0.03 :       0.00 :       0.03 :       0.03 *
 * CALC_CHAMP               :       0.06 :       0.00 :       0.06 :       0.06 *
 * IMPR_RESU                :       0.00 :       0.00 :       0.00 :       0.01 *
 * DETRUIRE                 :       0.01 :       0.00 :       0.01 :       0.01 *
 * ASSEMBLAGE               :       0.06 :       0.01 :       0.07 :       0.06 *
 * DYNA_VIBRA               :       0.03 :       0.00 :       0.03 :       0.03 *
 * CALC_CHAMP               :       0.05 :       0.01 :       0.06 :       0.06 *
 * IMPR_RESU                :       0.00 :       0.00 :       0.00 :       0.00 *
 * DETRUIRE                 :       0.02 :       0.00 :       0.02 :       0.01 *
 * ASSEMBLAGE               :       0.06 :       0.00 :       0.06 :       0.07 *
 * DYNA_VIBRA               :       0.04 :       0.00 :       0.04 :       0.03 *
 * CALC_CHAMP               :       0.06 :       0.00 :       0.06 :       0.06 *
 * IMPR_RESU                :       0.01 :       0.00 :       0.01 :       0.01 *
 * DETRUIRE                 :       0.01 :       0.00 :       0.01 :       0.01 *
 * ASSEMBLAGE               :       0.06 :       0.01 :       0.07 :       0.07 *
 * DYNA_VIBRA               :       0.03 :       0.00 :       0.03 :       0.03 *
 * CALC_CHAMP               :       0.07 :       0.00 :       0.07 :       0.06 *
 * IMPR_RESU                :       0.00 :       0.00 :       0.00 :       0.01 *
 * DETRUIRE                 :       0.02 :       0.00 :       0.02 :       0.01 *
 * ASSEMBLAGE               :       0.06 :       0.00 :       0.06 :       0.07 *
 * DYNA_VIBRA               :       0.03 :       0.00 :       0.03 :       0.03 *
 * CALC_CHAMP               :       0.06 :       0.00 :       0.06 :       0.06 *
 * IMPR_RESU                :       0.01 :       0.00 :       0.01 :       0.01 *
 * DETRUIRE                 :       0.01 :       0.00 :       0.01 :       0.01 *
 * ASSEMBLAGE               :       0.06 :       0.00 :       0.06 :       0.07 *
 * DYNA_VIBRA               :       0.03 :       0.00 :       0.03 :       0.03 *
 * CALC_CHAMP               :       0.06 :       0.00 :       0.06 :       0.06 *
 * IMPR_RESU                :       0.01 :       0.00 :       0.01 :       0.01 *
 * DETRUIRE                 :       0.01 :       0.00 :       0.01 :       0.01 *
 * ASSEMBLAGE               :       0.06 :       0.00 :       0.06 :       0.07 *
 * DYNA_VIBRA               :       0.03 :       0.00 :       0.03 :       0.03 *
 * CALC_CHAMP               :       0.06 :       0.01 :       0.07 :       0.06 *
 * IMPR_RESU                :       0.00 :       0.00 :       0.00 :       0.01 *
 * DETRUIRE                 :       0.02 :       0.00 :       0.02 :       0.01 *
 * ASSEMBLAGE               :       0.06 :       0.00 :       0.06 :       0.07 *
 * DYNA_VIBRA               :       0.03 :       0.00 :       0.03 :       0.03 *
 * CALC_CHAMP               :       0.06 :       0.01 :       0.07 :       0.06 *
 * IMPR_RESU                :       0.01 :       0.00 :       0.01 :       0.00 *
 * DETRUIRE                 :       0.01 :       0.00 :       0.01 :       0.02 *
 * ASSEMBLAGE               :       0.07 :       0.00 :       0.07 :       0.06 *
 * DYNA_VIBRA               :       0.03 :       0.00 :       0.03 :       0.04 *
 * CALC_CHAMP               :       0.06 :       0.00 :       0.06 :       0.06 *
 * IMPR_RESU                :       0.01 :       0.00 :       0.01 :       0.00 *
 * DETRUIRE                 :       0.01 :       0.00 :       0.01 :       0.02 *
 * ASSEMBLAGE               :       0.06 :       0.00 :       0.06 :       0.06 *
 * DYNA_VIBRA               :       0.03 :       0.00 :       0.03 :       0.04 *
 * CALC_CHAMP               :       0.06 :       0.00 :       0.06 :       0.06 *
 * IMPR_RESU                :       0.01 :       0.00 :       0.01 :       0.00 *
 * DETRUIRE                 :       0.02 :       0.00 :       0.02 :       0.02 *
 * ASSEMBLAGE               :       0.06 :       0.00 :       0.06 :       0.06 *
 * DYNA_VIBRA               :       0.03 :       0.00 :       0.03 :       0.04 *
 * CALC_CHAMP               :       0.06 :       0.01 :       0.07 :       0.06 *
 * IMPR_RESU                :       0.00 :       0.00 :       0.00 :       0.00 *
 * DETRUIRE                 :       0.01 :       0.00 :       0.01 :       0.02 *
 * ASSEMBLAGE               :       0.07 :       0.00 :       0.07 :       0.06 *
 * DYNA_VIBRA               :       0.03 :       0.00 :       0.03 :       0.03 *
 * CALC_CHAMP               :       0.04 :       0.01 :       0.05 :       0.06 *
 * IMPR_RESU                :       0.01 :       0.00 :       0.01 :       0.01 *
 * DETRUIRE                 :       0.02 :       0.00 :       0.02 :       0.01 *
 * ASSEMBLAGE               :       0.06 :       0.00 :       0.06 :       0.07 *
 * DYNA_VIBRA               :       0.03 :       0.00 :       0.03 :       0.03 *
 * CALC_CHAMP               :       0.06 :       0.00 :       0.06 :       0.06 *
 * IMPR_RESU                :       0.00 :       0.00 :       0.00 :       0.01 *
 * DETRUIRE                 :       0.02 :       0.00 :       0.02 :       0.01 *
 * ASSEMBLAGE               :       0.06 :       0.00 :       0.06 :       0.07 *
 * DYNA_VIBRA               :       0.03 :       0.01 :       0.04 :       0.03 *
 * CALC_CHAMP               :       0.05 :       0.00 :       0.05 :       0.06 *
 * IMPR_RESU                :       0.01 :       0.00 :       0.01 :       0.00 *
 * DETRUIRE                 :       0.01 :       0.00 :       0.01 :       0.01 *
 * ASSEMBLAGE               :       0.06 :       0.01 :       0.07 :       0.06 *
 * DYNA_VIBRA               :       0.02 :       0.01 :       0.03 :       0.04 *
 * CALC_CHAMP               :       0.06 :       0.00 :       0.06 :       0.06 *
 * IMPR_RESU                :       0.00 :       0.00 :       0.00 :       0.00 *
 * DETRUIRE                 :       0.01 :       0.00 :       0.01 :       0.02 *
 * ASSEMBLAGE               :       0.07 :       0.00 :       0.07 :       0.06 *
 * DYNA_VIBRA               :       0.02 :       0.01 :       0.03 :       0.04 *
 * CALC_CHAMP               :       0.07 :       0.00 :       0.07 :       0.06 *
 * IMPR_RESU                :       0.00 :       0.00 :       0.00 :       0.00 *
 * DETRUIRE                 :       0.02 :       0.00 :       0.02 :       0.02 *
 * ASSEMBLAGE               :       0.06 :       0.00 :       0.06 :       0.06 *
 * DYNA_VIBRA               :       0.03 :       0.00 :       0.03 :       0.04 *
 * CALC_CHAMP               :       0.06 :       0.01 :       0.07 :       0.06 *
 * IMPR_RESU                :       0.01 :       0.00 :       0.01 :       0.01 *
 * DETRUIRE                 :       0.01 :       0.00 :       0.01 :       0.01 *
 * ASSEMBLAGE               :       0.07 :       0.00 :       0.07 :       0.07 *
 * DYNA_VIBRA               :       0.04 :       0.00 :       0.04 :       0.04 *
 * CALC_CHAMP               :       0.06 :       0.00 :       0.06 :       0.07 *
 * IMPR_RESU                :       0.01 :       0.00 :       0.01 :       0.01 *
 * DETRUIRE                 :       0.01 :       0.00 :       0.01 :       0.01 *
 * ASSEMBLAGE               :       0.07 :       0.01 :       0.08 :       0.08 *
 * DYNA_VIBRA               :       0.03 :       0.00 :       0.03 :       0.04 *
 * CALC_CHAMP               :       0.10 :       0.01 :       0.11 :       0.10 *
 * IMPR_RESU                :       0.01 :       0.00 :       0.01 :       0.01 *
 * DETRUIRE                 :       0.02 :       0.00 :       0.02 :       0.02 *
 * ASSEMBLAGE               :       0.10 :       0.00 :       0.10 :       0.11 *
 * DYNA_VIBRA               :       0.05 :       0.00 :       0.05 :       0.04 *
 * CALC_CHAMP               :       0.06 :       0.00 :       0.06 :       0.07 *
 * IMPR_RESU                :       0.01 :       0.00 :       0.01 :       0.01 *
 * DETRUIRE                 :       0.02 :       0.00 :       0.02 :       0.01 *
 * ASSEMBLAGE               :       0.06 :       0.00 :       0.06 :       0.07 *
 * DYNA_VIBRA               :       0.03 :       0.01 :       0.04 :       0.03 *
 * CALC_CHAMP               :       0.06 :       0.00 :       0.06 :       0.06 *
 * IMPR_RESU                :       0.00 :       0.00 :       0.00 :       0.01 *
 * DETRUIRE                 :       0.02 :       0.00 :       0.02 :       0.01 *
 * ASSEMBLAGE               :       0.06 :       0.00 :       0.06 :       0.07 *
 * DYNA_VIBRA               :       0.02 :       0.01 :       0.03 :       0.03 *
 * CALC_CHAMP               :       0.05 :       0.01 :       0.06 :       0.06 *
 * IMPR_RESU                :       0.01 :       0.00 :       0.01 :       0.01 *
 * DETRUIRE                 :       0.02 :       0.00 :       0.02 :       0.01 *
 * ASSEMBLAGE               :       0.07 :       0.00 :       0.07 :       0.08 *
 * DYNA_VIBRA               :       0.03 :       0.01 :       0.04 :       0.04 *
 * CALC_CHAMP               :       0.06 :       0.00 :       0.06 :       0.06 *
 * IMPR_RESU                :       0.00 :       0.00 :       0.00 :       0.00 *
 * DETRUIRE                 :       0.02 :       0.01 :       0.03 :       0.02 *
 * ASSEMBLAGE               :       0.06 :       0.00 :       0.06 :       0.06 *
 * DYNA_VIBRA               :       0.03 :       0.00 :       0.03 :       0.04 *
 * CALC_CHAMP               :       0.06 :       0.00 :       0.06 :       0.06 *
 * IMPR_RESU                :       0.01 :       0.00 :       0.01 :       0.00 *
 * DETRUIRE                 :       0.02 :       0.00 :       0.02 :       0.02 *
 * ASSEMBLAGE               :       0.06 :       0.00 :       0.06 :       0.06 *
 * DYNA_VIBRA               :       0.03 :       0.00 :       0.03 :       0.04 *
 * CALC_CHAMP               :       0.05 :       0.02 :       0.07 :       0.06 *
 * IMPR_RESU                :       0.00 :       0.00 :       0.00 :       0.01 *
 * DETRUIRE                 :       0.01 :       0.00 :       0.01 :       0.01 *
 * ASSEMBLAGE               :       0.07 :       0.00 :       0.07 :       0.07 *
 * DYNA_VIBRA               :       0.03 :       0.00 :       0.03 :       0.03 *
 *  . part Superviseur      :       5.00 :       0.13 :       5.13 :       5.06 *
 *  . part Fortran          :      13.92 :       0.81 :      14.73 :      14.77 *
 * > 500 commandes...       :      27.41 :       1.62 :      29.03 :      31.59 *
 ********************************************************************************
 * TOTAL_JOB                :      46.33 :       2.56 :      48.89 :      51.48 *
 ********************************************************************************

