                                                                                
                                                                                
        -- CODE_ASTER -- VERSION : DÉVELOPPEMENT STABILISÉE (testing) --        
                                                                                
                          Version 11.3.0 du 12/12/2012                          
                         Copyright EDF R&D 1991 - 2016                          
                                                                                
                    Exécution du : Fri Jun 24 15:49:30 2016                     
                   Nom de la machine : liding-Precision-T3600                   
                              Architecture : 64bit                              
                          Type de processeur : x86_64                           
                Système d'exploitation : Linux 3.13.0-85-generic                
                        Langue des messages : en (UTF-8)                        
                                                                                
   
   !------------------------------------------------------------------------------------!
   ! <A> <SUPERVIS2_2>                                                                  !
   !                                                                                    !
   !     Vous utilisez une vieille version de Code_Aster.                               !
   !                                                                                    !
   !     En mettant à jour votre version, vous bénéficierez des dernières améliorations !
   !     apportées au code depuis 15 mois.                                              !
   !     Si vous avez des développements privés, vous risquez d'avoir un travail        !
   !     important de portage si vous ne suivez pas les mises à jour.                   !
   !                                                                                    !
   !                                                                                    !
   ! Ceci est une alarme. Si vous ne comprenez pas le sens de cette                     !
   ! alarme, vous pouvez obtenir des résultats inattendus !                             !
   !------------------------------------------------------------------------------------!
   
                           Parallélisme MPI : inactif                           
                          Parallélisme OpenMP : actif                           
                        Nombre de processus utilisés : 1                        
                      Version de la librairie HDF5 : 1.8.8                      
                      Version de la librairie MED : 3.0.6                       
                          Librairie MUMPS : installée                           
                    Version de la librairie SCOTCH : 5.1.10                     
                 Mémoire limite pour l'exécution : 20000.00 Mo                  
                   consommée par l'initialisation : 210.66 Mo                   
                 par les objets du jeu de commandes : 11.87 Mo                  
                reste pour l'allocation dynamique : 19777.47 Mo                 
                Taille limite des fichiers d'échange : 97.66 Go                 
                                                                                
   
   !----------------------------------------------------------------------------------------------------------------!
   ! <EXCEPTION> <MATRICE0_12>                                                                                      !
   !                                                                                                                !
   !  Une des charges renseignées pour l'assemblage des vecteurs est déjà présente dans le mot-clé                  !
   !  CHARGE définissant les conditions de Dirichlet. Il est interdit de renseigner plus d'une fois la même charge. !
   !----------------------------------------------------------------------------------------------------------------!
   

 --------------------------------------------------------------------------------
 ASTER 11.03.00 CONCEPT Pr_0 CALCULE LE 24/06/2016 A 15:49:30 DE TYPE ACOU_HARMO 

                    ENTITES TOPOLOGIQUES SELECTIONNEES 
 GROUP_MA : ENTREE SORTIE                                                        


 ======>

 ------>
 CHAMP AUX NOEUDS DE NOM SYMBOLIQUE  INTE_NOEU                                   
 NUMERO D'ORDRE: 1 FREQ:   2.00000000000000E+01                                  
 NOEUD        INTX_R       INTX_I       INTY_R       INTY_I       INTZ_R       INTZ_I  
 N1       -6.66588427876727E-30 -1.79557467626623E-03  1.73549399148623E-29  3.40181634431583E+01 -1.18914618486245E-29 -2.35726962757691E-03
 N2        7.74842542638303E-30  2.02979722736707E-03 -1.06496222204837E-29  3.40167124654235E+01 -2.29778368322466E-29 -2.52156435494616E-03
 N3        3.29184760919527E-30  6.55674129961875E-03 -1.49898979431547E-29  3.32950319464386E-02  1.34131390976849E-30 -8.22732017742334E-03
 N4        1.11133380028435E-29 -6.17394966400854E-03 -1.70517985416157E-29  3.54425676970311E-02 -7.01823316209292E-30 -6.13270646051383E-03
 N18      -1.40373811409094E-30  4.35419378896842E-03  2.12121924074810E-30  3.75236867634112E-02 -2.76561027277283E-29  3.71363132150063E-03
 N19       6.89256623322165E-30 -5.13193609433391E-03 -1.11257121027362E-29  3.05294647900918E-02 -4.35679057194420E-30  5.28938008052013E-03
 N28       3.61352605815655E-30 -1.94267563063806E-03 -2.09048139883568E-29  3.40176723357950E+01  4.96954925787530E-30  2.51916731077719E-03
 N29       7.97433099032858E-30  9.20104263239224E-04 -5.22620349708920E-30  3.40167623526803E+01  1.09222684490834E-30  3.73716920840691E-03
 N41      -2.97072888362408E-30 -2.50958764666289E-03  1.01565841547205E-29  3.40183200468161E+01 -1.22431787861872E-29 -2.99079867326418E-03
 N42       1.12176190846240E-30  7.46315408222171E-05 -8.48025473112588E-30  3.40144762875434E+01 -7.83981481459826E-30 -2.97209580862512E-03
 N43      -2.43073423840436E-30  3.21123273556131E-03 -1.52841800386571E-29  3.40164332155558E+01 -2.81705020649136E-30 -1.25078159478423E-03
 N44      -6.02714961271124E-30  3.16425329955543E-03 -9.26911563634689E-30  3.40175540340331E+01 -1.49791119831498E-30  4.88331835514219E-04
 N45       7.05176239871848E-31 -1.07211004169446E-03 -1.90312693384569E-29  3.40173197530333E+01  1.48560819232063E-30  3.10792819628555E-03
 N46       9.13783040871598E-30 -7.07280743369735E-04 -9.76215370211002E-30  3.40176262653059E+01 -7.40926916317644E-30  4.28670028861637E-03
 N47       2.81135904051619E-31 -2.41746143526098E-03  1.91580505553674E-30  3.40145024205946E+01 -8.77439410146272E-30 -7.02950792839673E-04
 N48       7.41445713696413E-30 -2.51693031460503E-03 -2.43560804486987E-29  3.40148147104602E+01 -1.86940540515224E-30  4.62035075061175E-04
 N64       4.77836660588543E-30  2.44232827609055E-05 -2.38085385655094E-29  3.52565543387800E-02 -3.91743680029234E-30  6.07649662824822E-04
 N65      -4.92794315254546E-30  2.10951227538035E-03 -9.37610104475760E-30  3.25806888906723E-02  7.63554787604871E-30 -3.22654921300902E-03
 N110     -2.64170822798523E-29  5.37623464847810E-03 -1.07115087693633E-29  3.41047492147098E-02  1.24561926565675E-30 -4.37199719151578E-03
 N111     -5.26690080422654E-30  7.79405659620031E-03  1.50646240249970E-30  3.31495300573711E-02  1.73088816011688E-30  1.81321615329940E-04
 N121      7.27644921012110E-30 -3.82984753247470E-03 -8.48083251010919E-30  2.96991150710751E-02 -2.28052494351052E-29  6.53835997093882E-03
 N122      2.16027679909372E-29 -1.25359200589190E-03 -1.91310806578248E-29  2.81153008891792E-02 -1.73451658203945E-29  8.75075720275183E-03
 N123      1.37628209119536E-29 -1.56208092618183E-03 -2.45094945254116E-29  3.67084767719685E-02 -2.57302177073766E-30 -1.05671530128945E-03
 N124      6.85643097264008E-30 -6.27033722069719E-03 -1.37330360614476E-29  3.28397449613250E-02 -1.25383531289216E-29  4.32700420352704E-03
 N248     -1.14635713724959E-30 -2.22650832826619E-03 -9.42688781739109E-30  3.40128179539017E+01 -9.80667871978019E-30 -1.17787244174422E-04
 N249      2.66680186059012E-30  6.33631528521456E-05 -1.16508687540334E-29  3.40117014547235E+01  6.34899935832623E-31 -3.39918637252736E-04
 N250      5.83778104629660E-30 -6.15497407424720E-04 -1.02551917678732E-29  3.40142858768643E+01 -5.64992237886570E-30  1.21445725957056E-03
 N251      2.61973542365123E-30 -1.17095816439425E-03 -1.65332098052570E-29  3.40128624509830E+01 -8.05907403944471E-30  4.13712179431756E-04
 N302      1.92124978415910E-30 -8.76859154188243E-04 -3.22011875582900E-29  3.20114876165191E-02 -1.24961557029135E-30 -1.08136655936665E-03
 N303     -4.46905830715583E-30  1.71127231211755E-03 -1.75284020051867E-29  3.46159144645817E-02 -6.01243229805289E-31 -3.08368399660321E-03
 N304      1.35550332088518E-29 -2.52237319763630E-05 -9.71499249259684E-30  3.93535550505769E-02 -2.67576462524004E-30  7.95689107336170E-04
 N305      1.48507568128891E-29 -1.33712293061040E-03 -1.72367428428467E-29  3.89582073037852E-02 -6.30012761283660E-30  1.70116918777981E-03
 

 ------>
 CHAMP AUX NOEUDS DE NOM SYMBOLIQUE  PRAC_NOEU                                   
 NUMERO D'ORDRE: 1 FREQ:   2.00000000000000E+01                                  
 NOEUD        PRES_R       PRES_I  
 N1       -4.16748261250352E-15 -6.80601560450749E+01
 N2       -4.16749539188428E-15 -6.80603647482008E+01
 N3       -6.40063199158471E-15 -1.04530253066289E+02
 N4       -6.40064820956512E-15 -1.04530517926009E+02
 N18      -6.40066616161911E-15 -1.04530811105300E+02
 N19      -6.40063505554108E-15 -1.04530303104494E+02
 N28      -4.16748517695172E-15 -6.80601979256922E+01
 N29      -4.16749993388448E-15 -6.80604389246932E+01
 N41      -4.16749067397597E-15 -6.80602876989109E+01
 N42      -4.16750608268117E-15 -6.80605393421637E+01
 N43      -4.16750738059854E-15 -6.80605605387630E+01
 N44      -4.16749886787643E-15 -6.80604215154607E+01
 N45      -4.16749389884819E-15 -6.80603403650711E+01
 N46      -4.16749034491630E-15 -6.80602823249588E+01
 N47      -4.16749382011700E-15 -6.80603390792933E+01
 N48      -4.16749774380581E-15 -6.80604031579944E+01
 N64      -6.40066625984318E-15 -1.04530812709421E+02
 N65      -6.40065677863883E-15 -1.04530657869603E+02
 N110     -6.40065963963938E-15 -1.04530704593288E+02
 N111     -6.40065271265010E-15 -1.04530591466968E+02
 N121     -6.40065092225592E-15 -1.04530562227612E+02
 N122     -6.40064716831768E-15 -1.04530500921148E+02
 N123     -6.40066685618733E-15 -1.04530822448460E+02
 N124     -6.40065194878350E-15 -1.04530578992080E+02
 N248     -4.16751294070533E-15 -6.80606513421977E+01
 N249     -4.16752253570291E-15 -6.80608080403999E+01
 N250     -4.16751231198597E-15 -6.80606410744314E+01
 N251     -4.16751080091321E-15 -6.80606163967406E+01
 N302     -6.40065039719600E-15 -1.04530553652733E+02
 N303     -6.40067232334397E-15 -1.04530911733903E+02
 N304     -6.40067746143746E-15 -1.04530995645338E+02
 N305     -6.40067484061673E-15 -1.04530952844087E+02
 
   
   !----------------------------------------------------------------------------------------------------------------!
   ! <EXCEPTION> <MATRICE0_12>                                                                                      !
   !                                                                                                                !
   !  Une des charges renseignées pour l'assemblage des vecteurs est déjà présente dans le mot-clé                  !
   !  CHARGE définissant les conditions de Dirichlet. Il est interdit de renseigner plus d'une fois la même charge. !
   !----------------------------------------------------------------------------------------------------------------!
   

 --------------------------------------------------------------------------------
 ASTER 11.03.00 CONCEPT Pr_1 CALCULE LE 24/06/2016 A 15:49:30 DE TYPE ACOU_HARMO 

                    ENTITES TOPOLOGIQUES SELECTIONNEES 
 GROUP_MA : ENTREE SORTIE                                                        


 ======>

 ------>
 CHAMP AUX NOEUDS DE NOM SYMBOLIQUE  INTE_NOEU                                   
 NUMERO D'ORDRE: 1 FREQ:   3.20000000000000E+01                                  
 NOEUD        INTX_R       INTX_I       INTY_R       INTY_I       INTZ_R       INTZ_I  
 N1        1.46346601649125E-31 -5.06445215107707E-05 -1.08468374467889E-30  3.63548509110591E+00  4.81031096266093E-33 -4.63701857766574E-05
 N2       -2.06170048230269E-31  4.15536352812004E-05 -1.08468374467889E-30  3.63550929859366E+00 -5.55886576526456E-33 -5.78121902008386E-05
 N3        4.32630069351211E-30  4.16046660955927E-03 -8.42016571686100E-31  2.11268345287189E-02 -4.98307891573462E-30 -5.22050610229797E-03
 N4       -1.29196195494357E-30 -3.91758946713366E-03 -1.49875868272215E-30  2.24896593355567E-02 -8.39748789176584E-30 -3.89145013506740E-03
 N18      -2.78115719178562E-30  2.76292275111294E-03  3.36281812764594E-30  2.38103173342425E-02 -6.53768204368015E-30  2.35644880647192E-03
 N19      -3.87807661014244E-30 -3.25637762671720E-03  4.54423170378168E-30  1.93720032005671E-02 -3.80505979112586E-30  3.35630561823788E-03
 N28      -4.80026753892751E-32 -4.95315803995367E-05 -9.36772324949952E-31  3.63546701906785E+00 -7.85154994710835E-32  6.10752701775198E-05
 N29       2.05504342269511E-31  8.84465857573948E-06 -9.98402083170343E-31  3.63550497977253E+00 -3.39436806688359E-32  1.08151606546398E-04
 N41       1.23484647118853E-31 -7.09515624172530E-05 -9.98402083170343E-31  3.63551788818573E+00 -3.58237075588236E-32 -6.61185403345427E-05
 N42      -6.98690018776591E-32 -7.20910230793243E-06 -8.54599313989429E-31  3.63547611096308E+00 -1.81310693699079E-31 -6.93823413845064E-05
 N43       1.86719284266535E-32  7.15635029484067E-05 -9.61424228238108E-31  3.63553335750842E+00 -4.13804104144826E-32 -2.70967038635105E-05
 N44       8.81498511704230E-32  6.77570863135487E-05 -1.09700969632297E-30  3.63553581184008E+00  1.16785822196991E-31  1.69342387898301E-05
 N45      -3.77163945229696E-32 -3.21910867192078E-05 -9.61424228238108E-31  3.63548618869918E+00 -1.93965971840484E-32  7.80715509930125E-05
 N46      -2.70732100618674E-32 -2.50171213576324E-05 -1.10933564796705E-30  3.63548663600363E+00 -5.16376800802098E-32  1.10549375705401E-04
 N47       1.04246923034151E-31 -6.94040637264215E-05 -1.07764034373942E-30  3.63541959567155E+00 -2.42787593992645E-32 -8.75844399967370E-06
 N48      -3.13656687432171E-32 -6.65415335390005E-05 -9.12120421661795E-31  3.63543317473883E+00  8.76105343622657E-33  1.27722981258491E-05
 N64      -4.49770244003150E-30  1.54899599544793E-05  8.75270962059186E-31  2.23717266240566E-02 -8.99106351298003E-31  3.85616822665700E-04
 N65       3.00936183460228E-30  1.33856337206191E-03 -1.93151514122596E-30  2.06736838979490E-02  1.45126645399977E-30 -2.04734414224334E-03
 N110     -1.37990473102915E-30  3.41140551465699E-03  3.49883692996829E-30  2.16407693406502E-02 -2.02432891512922E-30 -2.77421008166975E-03
 N111     -4.55368079757133E-30  4.94560640382364E-03 -1.49837349673327E-30  2.10346429120120E-02 -4.01389003009182E-31  1.15060384972413E-04
 N121     -4.98985277246089E-30 -2.43016026793344E-03  3.19439555400928E-30  1.88452082725926E-02 -2.06815385224916E-30  4.14882583759793E-03
 N122     -1.33725441055759E-30 -7.95442845450387E-04  7.40245618599817E-30  1.78402258136758E-02 -1.01540563716685E-29  5.55266281249819E-03
 N123     -1.02930466087622E-30 -9.91141795678909E-04  2.80376881303894E-30  2.32930162733125E-02  2.01200633099658E-30 -6.70556804927058E-04
 N124     -5.53949211373024E-30 -3.97873210870800E-03  8.58820310450878E-31  2.08380282926608E-02  2.90169332291441E-30  2.74565190341584E-03
 N248     -2.74364143063845E-33 -6.94990450893285E-05 -1.02551917678732E-30  3.63545203502014E+00 -9.99142244943282E-32  1.67473868839450E-06
 N249     -4.61915894345103E-32 -5.36863708744960E-06 -1.08468374467889E-30  3.63545724203874E+00 -8.40558032763222E-32 -6.43318978566439E-06
 N250      1.28270951128314E-32 -2.42950672025847E-05 -1.11990074937626E-30  3.63548767344166E+00  2.32466770385202E-32  4.12130004355924E-05
 N251     -1.93939915049041E-32 -4.19811782815853E-05 -1.05592319084271E-30  3.63543302719329E+00 -8.26518094011845E-33  1.72440668552720E-05
 N302      1.01567639583364E-30 -5.56407841517391E-04  3.97588977719301E-30  2.03125324282473E-02  1.22368849073142E-30 -6.86145058858024E-04
 N303      2.71407539672656E-30  1.08584988204581E-03  2.70411798783310E-30  2.19652182230346E-02  9.56740682586240E-31 -1.95670931756881E-03
 N304      2.67318370984338E-31 -1.60024360418065E-05 -7.87127568271063E-31  2.49714634230390E-02 -3.60885163434085E-30  5.04884397425292E-04
 N305     -1.49213657895801E-30 -8.48430443800990E-04  1.97095543515852E-30  2.47205617050417E-02 -6.62168784065174E-31  1.07943307117707E-03
 

 ------>
 CHAMP AUX NOEUDS DE NOM SYMBOLIQUE  PRAC_NOEU                                   
 NUMERO D'ORDRE: 1 FREQ:   3.20000000000000E+01                                  
 NOEUD        PRES_R       PRES_I  
 N1       -4.45249702678578E-16 -7.27147946638297E+00
 N2       -4.45256070761980E-16 -7.27158346507723E+00
 N3       -4.03079770813169E-15 -6.58279221558100E+01
 N4       -4.03082385412609E-15 -6.58283491523026E+01
 N18      -4.03085279556931E-15 -6.58288218019392E+01
 N19      -4.03080264797087E-15 -6.58280028295060E+01
 N28      -4.45249674839533E-16 -7.27147901173685E+00
 N29      -4.45256398294163E-16 -7.27158881408371E+00
 N41      -4.45253107807156E-16 -7.27153507635279E+00
 N42      -4.45259348329965E-16 -7.27163699182449E+00
 N43      -4.45260187064047E-16 -7.27165068939153E+00
 N44      -4.45256860264943E-16 -7.27159635863908E+00
 N45      -4.45253005138752E-16 -7.27153339965052E+00
 N46      -4.45252433143316E-16 -7.27152405825614E+00
 N47      -4.45253004342480E-16 -7.27153338664641E+00
 N48      -4.45254237576077E-16 -7.27155352687947E+00
 N64      -4.03085295391619E-15 -6.58288243879399E+01
 N65      -4.03083766872908E-15 -6.58285747618907E+01
 N110     -4.03084228108424E-15 -6.58286500873668E+01
 N111     -4.03083111386250E-15 -6.58284677127956E+01
 N121     -4.03082822747094E-15 -6.58284205744442E+01
 N122     -4.03082217555268E-15 -6.58283217391186E+01
 N123     -4.03085391555254E-15 -6.58288400926534E+01
 N124     -4.03082988258661E-15 -6.58284476045343E+01
 N248     -4.45261196125149E-16 -7.27166716860991E+00
 N249     -4.45265295470468E-16 -7.27173411599950E+00
 N250     -4.45260997488440E-16 -7.27166392462627E+00
 N251     -4.45259453024145E-16 -7.27163870161020E+00
 N302     -4.03082738059623E-15 -6.58284067439306E+01
 N303     -4.03086272905473E-15 -6.58289840280672E+01
 N304     -4.03087101266157E-15 -6.58291193096330E+01
 N305     -4.03086678746641E-15 -6.58290503069596E+01
 
   
   !----------------------------------------------------------------------------------------------------------------!
   ! <EXCEPTION> <MATRICE0_12>                                                                                      !
   !                                                                                                                !
   !  Une des charges renseignées pour l'assemblage des vecteurs est déjà présente dans le mot-clé                  !
   !  CHARGE définissant les conditions de Dirichlet. Il est interdit de renseigner plus d'une fois la même charge. !
   !----------------------------------------------------------------------------------------------------------------!
   

 --------------------------------------------------------------------------------
 ASTER 11.03.00 CONCEPT Pr_2 CALCULE LE 24/06/2016 A 15:49:30 DE TYPE ACOU_HARMO 

                    ENTITES TOPOLOGIQUES SELECTIONNEES 
 GROUP_MA : ENTREE SORTIE                                                        


 ======>

 ------>
 CHAMP AUX NOEUDS DE NOM SYMBOLIQUE  INTE_NOEU                                   
 NUMERO D'ORDRE: 1 FREQ:   4.40000000000000E+01                                  
 NOEUD        INTX_R       INTX_I       INTY_R       INTY_I       INTZ_R       INTZ_I  
 N1       -8.90393524476676E-31 -7.04983431595540E-04  1.97215226305253E-31 -1.62664575972754E+01 -8.08397057094390E-31 -1.14761285024825E-03
 N2        3.83753578481309E-31  9.70219579113322E-04  1.18329135783152E-30 -1.62674075989927E+01  1.32703795405572E-30 -1.13699895787269E-03
 N3        9.51168651284246E-31  3.09355980842903E-03 -1.62683302402390E-30  1.57091386255840E-02 -1.19410063964439E-30 -3.88176642865428E-03
 N4        4.95349181696397E-31 -2.91298399492173E-03  1.09200227846756E-31  1.67226373226798E-02 -1.94270960902771E-30 -2.89358130763853E-03
 N18       3.91162390236124E-31  2.05444937319546E-03 -1.79328151946756E-31  1.77047571867784E-02 -8.03644674493337E-31  1.75219377350305E-03
 N19       2.92233387524028E-30 -2.42131087270034E-03  1.30751383924449E-30  1.44043272830123E-02  3.61111864572607E-33  2.49564019117895E-03
 N28      -1.28426425369709E-30 -8.20834654133994E-04  1.57772181044202E-30 -1.62666896980499E+01  1.13333754989897E-30  1.09915939041568E-03
 N29      -4.94384853150756E-31  5.50111483841620E-04  9.86076131526265E-31 -1.62674324891321E+01  7.52530794695854E-32  1.43696106799955E-03
 N41      -1.10323436208854E-30 -9.83489783001825E-04  1.57772181044202E-30 -1.62665678542723E+01 -8.03142879464858E-31 -1.37562268191273E-03
 N42      -9.81963468624188E-32  1.32091934638101E-04  6.24514883299968E-31 -1.62685737097114E+01  4.21939151982837E-31 -1.32646582220111E-03
 N43       2.11849284617058E-31  1.47068147994059E-03  8.87468518373638E-31 -1.62677709435198E+01  5.01466266218980E-31 -5.81479835400881E-04
 N44      -6.23492736105525E-31  1.47960105804039E-03  3.94430452610506E-31 -1.62671267639766E+01 -1.24535445028940E-31  1.56774643839756E-04
 N45      -1.05179284850560E-31 -3.99412876127337E-04  3.45126646034193E-31 -1.62670380557413E+01  6.23255004128014E-31  1.32602842602103E-03
 N46       6.37769067976487E-31 -2.21755667712879E-04  1.08468374467889E-30 -1.62667801278597E+01 -1.18811821975464E-31  1.79732488115943E-03
 N47      -4.93556089330763E-31 -9.35716360630791E-04  5.35298471399972E-31 -1.62682838993580E+01 -6.86287509984240E-31 -3.98242690664351E-04
 N48       2.42774001919394E-31 -1.03734400781810E-03 -2.95822839457879E-31 -1.62681950170682E+01 -3.38113552697639E-31  1.84180492225209E-04
 N64       7.80362739341403E-31  1.15096742391013E-05 -1.27316808856959E-30  1.66350546036061E-02  3.90146261572757E-31  2.86776561799260E-04
 N65      -2.79635699201859E-30  9.95312901066922E-04 -1.83216123021988E-30  1.53723276719953E-02  5.93661886826289E-31 -1.52231745254302E-03
 N110      2.15623104219544E-30  2.53659708189712E-03 -3.92819091223702E-30  1.60914355280280E-02 -2.25313340487647E-30 -2.06283184408729E-03
 N111      7.96053049857083E-31  3.67738375494957E-03 -2.46961996768775E-30  1.56407342824870E-02 -1.58104817733621E-30  8.55608102735342E-05
 N121      1.06543046376610E-32 -1.80696846165541E-03 -1.26733412577972E-30  1.40127200618814E-02  7.14971399198380E-31  3.08492895634788E-03
 N122     -1.32074633213193E-30 -5.91457663731462E-04  2.63322771646345E-31  1.32654538563700E-02 -2.89834401037050E-31  4.12876559496532E-03
 N123      1.51436559359291E-30 -7.36920271906445E-04 -1.42981039071308E-30  1.73200866582420E-02 -1.01032823239293E-30 -4.98639305709556E-04
 N124      1.01266600182096E-30 -2.95842725795383E-03 -3.64843353839857E-31  1.54944895391009E-02  1.13541319080388E-30  2.04158772006107E-03
 N248     -3.85749755968102E-31 -8.00275880296036E-04  4.53595020502082E-31 -1.62694785658971E+01  3.49769303290562E-31 -1.01473251482385E-04
 N249     -6.57635631418900E-32  1.03844795419269E-04  5.76475276892278E-31 -1.62701481710085E+01  8.56353638637490E-32 -1.68352661277535E-04
 N250     -6.28192308783228E-32 -1.65128410441627E-04  6.76166490189439E-31 -1.62688417109204E+01  1.18198039279460E-32  3.99928021683428E-04
 N251      4.02555250137777E-32 -3.60928902190823E-04 -4.93038065763132E-32 -1.62693738559584E+01 -8.72890758404609E-32  1.00791585722817E-04
 N302     -8.20560132241218E-31 -4.13736150480076E-04 -2.63979995239867E-30  1.51038171382459E-02 -1.46251057468290E-31 -5.10171683576511E-04
 N303     -1.45271300167464E-30  8.07386346931685E-04 -2.24815407349942E-30  1.63327893049802E-02 -9.41130054914288E-31 -1.45494431680590E-03
 N304     -7.80172168197248E-31 -1.18956904892740E-05 -1.43274141534720E-30  1.85681777689215E-02 -9.58746640186031E-31  3.75405359606568E-04
 N305     -1.12578773255894E-31 -6.30840317053089E-04 -1.52743440392983E-30  1.83815729108888E-02 -4.32110003781965E-31  8.02608499882016E-04
 

 ------>
 CHAMP AUX NOEUDS DE NOM SYMBOLIQUE  PRAC_NOEU                                   
 NUMERO D'ORDRE: 1 FREQ:   4.40000000000000E+01                                  
 NOEUD        PRES_R       PRES_I  
 N1        1.99138360832008E-15  3.25217623515052E+01
 N2        1.99140341817409E-15  3.25220858709725E+01
 N3       -2.96414577731318E-15 -4.84081741670649E+01
 N4       -2.96418212857809E-15 -4.84087678282729E+01
 N18      -2.96422236608863E-15 -4.84094249566885E+01
 N19      -2.96415264576827E-15 -4.84082863374490E+01
 N28       1.99139201914219E-15  3.25218997106541E+01
 N29       1.99141703162809E-15  3.25223081955481E+01
 N41       1.99139818072942E-15  3.25220003370099E+01
 N42       1.99142694514519E-15  3.25224700955688E+01
 N43       1.99142830681492E-15  3.25224923333230E+01
 N44       1.99141200762239E-15  3.25222261473087E+01
 N45       1.99140898619066E-15  3.25221768035838E+01
 N46       1.99139940929154E-15  3.25220204009520E+01
 N47       1.99140872954642E-15  3.25221726122654E+01
 N48       1.99141726384240E-15  3.25223119878956E+01
 N64      -2.96422258622923E-15 -4.84094285518573E+01
 N65      -2.96420133502931E-15 -4.84090814934249E+01
 N110     -2.96420774759531E-15 -4.84091862185751E+01
 N111     -2.96419222200380E-15 -4.84089326664241E+01
 N121     -2.96418820902385E-15 -4.84088671294880E+01
 N122     -2.96417979499845E-15 -4.84087297180252E+01
 N123     -2.96422392368483E-15 -4.84094503941649E+01
 N124     -2.96419051054425E-15 -4.84089047161686E+01
 N248      1.99144290248702E-15  3.25227306987377E+01
 N249      1.99146009052569E-15  3.25230114007111E+01
 N250      1.99144154099299E-15  3.25227084638527E+01
 N251      1.99144188436570E-15  3.25227140715547E+01
 N302     -2.96418703079864E-15 -4.84088478876100E+01
 N303     -2.96423617637956E-15 -4.84096504958553E+01
 N304     -2.96424769358486E-15 -4.84098385860917E+01
 N305     -2.96424181919598E-15 -4.84097426500407E+01
 
   
   !----------------------------------------------------------------------------------------------------------------!
   ! <EXCEPTION> <MATRICE0_12>                                                                                      !
   !                                                                                                                !
   !  Une des charges renseignées pour l'assemblage des vecteurs est déjà présente dans le mot-clé                  !
   !  CHARGE définissant les conditions de Dirichlet. Il est interdit de renseigner plus d'une fois la même charge. !
   !----------------------------------------------------------------------------------------------------------------!
   

 --------------------------------------------------------------------------------
 ASTER 11.03.00 CONCEPT Pr_3 CALCULE LE 24/06/2016 A 15:49:31 DE TYPE ACOU_HARMO 

                    ENTITES TOPOLOGIQUES SELECTIONNEES 
 GROUP_MA : ENTREE SORTIE                                                        


 ======>

 ------>
 CHAMP AUX NOEUDS DE NOM SYMBOLIQUE  INTE_NOEU                                   
 NUMERO D'ORDRE: 1 FREQ:   5.60000000000000E+01                                  
 NOEUD        INTX_R       INTX_I       INTY_R       INTY_I       INTZ_R       INTZ_I  
 N1        3.04503968682205E-30 -3.89688825409062E-03  2.36658271566304E-30 -3.25851409574703E+01 -1.50848462894130E-31 -5.91092632235204E-03
 N2       -5.49438924184513E-30  5.02534876002052E-03 -7.49417859959961E-30 -3.25897542912315E+01  4.69426164644945E-30 -5.99878701223730E-03
 N3       -4.43036109581979E-31  2.50264682381503E-03 -2.08944139666571E-30  1.27085309064063E-02  2.41824578642122E-32 -3.14029800632915E-03
 N4        1.20392288236077E-30 -2.35658277573124E-03 -2.15810079918312E-30  1.35286028890307E-02 -5.20482567470650E-32 -2.34092191482743E-03
 N18       1.41529068449173E-30  1.66207243196454E-03 -9.93539110060765E-31  1.43232629873771E-02  2.88084136968450E-31  1.41753323161988E-03
 N19       7.30408931408859E-32 -1.95880272583285E-03  1.37222508537591E-31  1.16529699379658E-02  2.79259841936149E-31  2.01896263059793E-03
 N28       7.61835293276398E-30 -4.42411448947115E-03 -2.36658271566304E-30 -3.25863205643370E+01 -4.45034261899281E-31  5.86090913611212E-03
 N29       1.48201061536982E-30  2.67287831010262E-03  4.93038065763132E-30 -3.25897714806545E+01 -1.82116838320918E-30  8.00187325253666E-03
 N41       1.84272977078971E-30 -5.44005018434467E-03 -4.93038065763132E-31 -3.25854586526573E+01 -1.88030947882956E-30 -7.21176369377767E-03
 N42      -1.28750021723907E-30  5.29734259155578E-04 -3.02396680334721E-30 -3.25956509701854E+01  1.26172485481669E-30 -7.02169541406235E-03
 N43      -1.01874471820793E-30  7.72054854566502E-03 -1.47911419728940E-30 -3.25912978142206E+01  5.52221291101045E-31 -3.03842240155948E-03
 N44       7.18046868578324E-31  7.71640763289021E-03  4.53595020502082E-30 -3.25880991053126E+01 -4.44047222802782E-32  9.34396238463476E-04
 N45       3.12408857860976E-30 -2.24986881760659E-03 -2.26797510251041E-30 -3.25878706134427E+01 -9.58162184394802E-31  7.12338936462572E-03
 N46       1.71712603649474E-30 -1.33482139449367E-03  1.87354464989990E-30 -3.25867276964745E+01 -5.09035321363699E-30  9.71194852111887E-03
 N47       3.33051409198946E-30 -5.19858324732310E-03 -8.45208112736798E-31 -3.25944861251997E+01 -5.01532792482126E-32 -1.96343584813683E-03
 N48       5.40342516315929E-30 -5.63843388425732E-03 -2.76101316827354E-30 -3.25939344623078E+01 -1.34304724671844E-30  1.01224908127906E-03
 N64       6.59715265387695E-31  9.30259675573292E-06 -4.09789743916994E-31  1.34578640376917E-02 -1.90432341782364E-31  2.32048303777287E-04
 N65       1.99887454103090E-31  8.05204578554464E-04 -1.72142025841762E-30  1.24361982611359E-02 -7.65972431538185E-31 -1.23152578598081E-03
 N110     -8.99353111072128E-31  2.05208208623950E-03 -4.90502258003023E-31  1.30179689144748E-02  1.04256004567650E-30 -1.66884270634856E-03
 N111     -1.81296211608677E-31  2.97497865590613E-03  5.35167783296603E-32  1.26533478806706E-02  3.79419483790053E-31  6.92243601583024E-05
 N121     -5.63223918224741E-31 -1.46180870743541E-03 -4.61115776934914E-31  1.13362682118050E-02  7.49553878762284E-31  2.49569096648707E-03
 N122     -3.50372548183494E-31 -4.78478417415234E-04 -3.69224844463338E-31  1.07317395449709E-02 -4.18715225503014E-31  3.34013870115526E-03
 N123      5.29328088572372E-31 -5.96100872045967E-04  4.09535246031486E-31  1.40120424632923E-02  6.07323522474209E-31 -4.03434352634344E-04
 N124     -1.89511506527704E-31 -2.39332445020882E-03  5.90297527954688E-32  1.25349848953206E-02  3.71756389097269E-31  1.65164655605729E-03
 N248      1.49274481600752E-30 -4.56789315752178E-03 -8.67746995743113E-31 -3.26001567187914E+01  3.03090008845397E-31 -4.53609404147040E-04
 N249      7.41383028380435E-31  4.20027049033558E-04  1.21363216187848E-31 -3.26034605077455E+01  1.95879112406334E-31 -8.62946526714139E-04
 N250      1.57605650438799E-30 -1.06199676149389E-03  3.21179082839983E-30 -3.25967532177202E+01 -1.22647474819840E-30  2.36012074114850E-03
 N251      2.59265767618116E-30 -2.18775564025432E-03 -1.31476817536835E-31 -3.25997059941221E+01 -3.21077692981718E-31  6.76788918563119E-04
 N302      3.59000112481241E-31 -3.34720730426040E-04  1.34863244355716E-31  1.22190062868487E-02  7.42690496386250E-32 -4.12701687518933E-04
 N303     -3.67129925451077E-31  6.53154692437343E-04 -4.14099012167561E-31  1.32133339222796E-02  5.52109133266718E-31 -1.17704246385145E-03
 N304      9.42355264839521E-32 -9.62015415190745E-06 -3.87123955883987E-31  1.50217985451378E-02 -3.94443806226331E-31  3.03690410270016E-04
 N305     -7.16099873775170E-32 -5.10320505143710E-04 -1.00629839594233E-31  1.48707907847573E-02  1.89239974049775E-31  6.49282521329885E-04
 

 ------>
 CHAMP AUX NOEUDS DE NOM SYMBOLIQUE  PRAC_NOEU                                   
 NUMERO D'ORDRE: 1 FREQ:   5.60000000000000E+01                                  
 NOEUD        PRES_R       PRES_I  
 N1        3.98696848241003E-15  6.51121365798842E+01
 N2        3.98704217262729E-15  6.51133400324603E+01
 N3       -2.36322243564151E-15 -3.85943512413028E+01
 N4       -2.36326938134082E-15 -3.85951179227548E+01
 N18      -2.36332134537348E-15 -3.85959665598099E+01
 N19      -2.36323130673683E-15 -3.85944961172838E+01
 N28       3.98699337445894E-15  6.51125430978930E+01
 N29       3.98708332692170E-15  6.51140121330927E+01
 N41       3.98701968805960E-15  6.51129728316037E+01
 N42       3.98711963770505E-15  6.51146051331867E+01
 N43       3.98712564607000E-15  6.51147032572329E+01
 N44       3.98706950616104E-15  6.51137864229424E+01
 N45       3.98705150757108E-15  6.51134924836617E+01
 N46       3.98702176294945E-15  6.51130067171265E+01
 N47       3.98705073478675E-15  6.51134798631359E+01
 N48       3.98707894437980E-15  6.51139405607520E+01
 N64      -2.36332162965384E-15 -3.85959712024606E+01
 N65      -2.36329418501306E-15 -3.85955229974631E+01
 N110     -2.36330246636432E-15 -3.85956582421927E+01
 N111     -2.36328241658859E-15 -3.85953308045063E+01
 N121     -2.36327723408207E-15 -3.85952461677519E+01
 N122     -2.36326636794019E-15 -3.85950687101879E+01
 N123     -2.36332335771187E-15 -3.85959994237899E+01
 N124     -2.36328020702127E-15 -3.85952947195334E+01
 N248      3.98717130058437E-15  6.51154488520346E+01
 N249      3.98723189472445E-15  6.51164384294396E+01
 N250      3.98716680169112E-15  6.51153753795321E+01
 N251      3.98716419787515E-15  6.51153328559903E+01
 N302     -2.36327571111012E-15 -3.85952212957324E+01
 N303     -2.36333917990770E-15 -3.85962578198571E+01
 N304     -2.36335405435488E-15 -3.85965007380143E+01
 N305     -2.36334646786256E-15 -3.85963768411924E+01
 
   
   !----------------------------------------------------------------------------------------------------------------!
   ! <EXCEPTION> <MATRICE0_12>                                                                                      !
   !                                                                                                                !
   !  Une des charges renseignées pour l'assemblage des vecteurs est déjà présente dans le mot-clé                  !
   !  CHARGE définissant les conditions de Dirichlet. Il est interdit de renseigner plus d'une fois la même charge. !
   !----------------------------------------------------------------------------------------------------------------!
   

 --------------------------------------------------------------------------------
 ASTER 11.03.00 CONCEPT Pr_4 CALCULE LE 24/06/2016 A 15:49:31 DE TYPE ACOU_HARMO 

                    ENTITES TOPOLOGIQUES SELECTIONNEES 
 GROUP_MA : ENTREE SORTIE                                                        


 ======>

 ------>
 CHAMP AUX NOEUDS DE NOM SYMBOLIQUE  INTE_NOEU                                   
 NUMERO D'ORDRE: 1 FREQ:   6.80000000000000E+01                                  
 NOEUD        INTX_R       INTX_I       INTY_R       INTY_I       INTZ_R       INTZ_I  
 N1       -4.98112891166593E-30 -1.02184060399408E-02  3.15544362088405E-30 -4.73975021762088E+01 -8.10662432191475E-30 -1.52074032902696E-02
 N2        2.27721956624347E-30  1.29491873123795E-02 -3.94430452610506E-30 -4.74091258089554E+01 -4.36685355590362E-30 -1.55370991544721E-02
 N3        9.53275137160920E-32  2.13711266710132E-03  3.14022877432339E-31  1.08523950088274E-02 -2.32110669485119E-31 -2.68163230100941E-03
 N4       -1.83252234208445E-30 -2.01240299792244E-03  3.63230387511433E-31  1.15528634705809E-02  1.69674428100515E-31 -1.99906727365917E-03
 N18      -5.68694010656632E-31  1.41936626807735E-03 -3.54274813270032E-31  1.22316032996809E-02 -2.86729591318110E-31  1.21052452403157E-03
 N19       2.06920709518749E-30 -1.67269760773028E-03 -4.72238022363750E-31  9.95102231679223E-03  3.51313695980537E-31  1.72410083219634E-03
 N28      -5.11642549025913E-30 -1.15245046082281E-02  7.88860905221012E-31 -4.74005350980330E+01  7.98259443349622E-30  1.52226390925456E-02
 N29       4.53271825383289E-30  6.76026118208346E-03  2.95822839457879E-31 -4.74091014217103E+01  4.64775043829250E-31  2.10218691016823E-02
 N41      -3.76073932828065E-30 -1.42675699421833E-02 -3.74708929979981E-30 -4.73981200129207E+01 -1.39885106685706E-30 -1.86459807660362E-02
 N42      -2.58551280209125E-30  1.25338307744126E-03 -4.20725816117873E-30 -4.74242110217099E+01  4.03405286151350E-30 -1.82030828258296E-02
 N43      -1.29092676759846E-30  1.99687080185498E-02 -3.94430452610506E-30 -4.74128456106482E+01  5.10708473002885E-31 -7.84917252442781E-03
 N44      -1.94648924654357E-30  1.99215099239195E-02 -1.67632942359465E-30 -4.74047177070974E+01  3.05733554581075E-30  2.49544360803339E-03
 N45       3.23247480012846E-30 -5.92824842091562E-03 -4.04291213925769E-30 -4.74043311834799E+01 -1.88625578753286E-30  1.85389314424391E-02
 N46       6.85774903094577E-30 -3.57392424937227E-03 -4.93038065763132E-31 -4.74015201158413E+01 -1.78326668375675E-30  2.53153159107123E-02
 N47      -1.72337714080754E-30 -1.36496715619374E-02 -1.35233298037888E-30 -4.74214955756928E+01 -4.86935619167917E-30 -4.98827374854876E-03
 N48       3.75435968533987E-30 -1.47206894724307E-02 -1.97215226305253E-30 -4.74200051973731E+01 -2.48747093085979E-30  2.64961513315085E-03
 N64      -3.76893456142942E-31  7.93479727954099E-06 -1.13790360880879E-32  1.14925777570932E-02  1.87420066978721E-31  1.98208575502247E-04
 N65       1.43009326167367E-31  6.87608084592432E-04 -5.88010486145728E-31  1.06199901389226E-02 -6.88640325739961E-31 -1.05164201275067E-03
 N110      4.28086078388673E-31  1.75236794286546E-03  2.80864783556472E-32  1.11168116693637E-02  4.82533722858120E-31 -1.42513598363196E-03
 N111      3.30471522863621E-31  2.54048411428067E-03 -2.26080101346757E-31  1.08054362543035E-02  2.67209144049259E-31  5.91208066139217E-05
 N121      5.62127040936102E-31 -1.24829451732902E-03 -1.06783185766550E-30  9.68068686384487E-03  4.21513842453451E-31  2.13120073340662E-03
 N122     -1.16136584912088E-31 -4.08589571699344E-04 -9.20016734433783E-31  9.16445430979093E-03  3.89374886506489E-31  2.85230758632478E-03
 N123      3.96062334322313E-32 -5.08974212480968E-04  3.57824027024688E-31  1.19658102853504E-02 -6.10914221103784E-32 -3.44553673181045E-04
 N124      1.44865140224716E-30 -2.04375567840119E-03  4.59815774222453E-33  1.07043051202143E-02 -2.13648825408845E-31  1.41044100362752E-03
 N248     -1.12536119066367E-30 -1.20758796475129E-02 -5.12759588393658E-31 -4.74356903145788E+01 -8.35415764772934E-31 -1.11750126937601E-03
 N249     -3.79246717225871E-30  9.97112147736052E-04 -2.63964995208569E-30 -4.74440632718882E+01  1.68304610427570E-30 -2.21771537215662E-03
 N250      1.56290364956355E-30 -2.88580651121103E-03 -7.88860905221012E-31 -4.74268447133281E+01 -1.51747545457901E-30  6.28905798304708E-03
 N251      4.30661407836183E-30 -5.86716678101687E-03 -2.56379794196829E-30 -4.74346114176832E+01 -5.07278928953258E-30  1.85471575315313E-03
 N302     -2.50475652826886E-31 -2.85846510201382E-04 -2.54018122602524E-31  1.04345520478905E-02  2.03850656816775E-31 -3.52401575730352E-04
 N303      8.26230528910489E-32  5.57745364341917E-04  9.11526593262276E-32  1.12837616764621E-02  2.89970382223553E-31 -1.00513828270026E-03
 N304     -1.18699068557333E-33 -8.21155456771214E-06 -9.79215006099385E-32  1.28281541280944E-02 -4.52330226196416E-32  2.59325984478350E-04
 N305      4.38260082751698E-31 -4.35761851347083E-04 -3.76588087340004E-31  1.26991526171592E-02  8.53997317583450E-32  5.54431419814730E-04
 

 ------>
 CHAMP AUX NOEUDS DE NOM SYMBOLIQUE  PRAC_NOEU                                   
 NUMERO D'ORDRE: 1 FREQ:   6.80000000000000E+01                                  
 NOEUD        PRES_R       PRES_I  
 N1        5.79532912852307E-15  9.46449071284554E+01
 N2        5.79549286028155E-15  9.46475810709928E+01
 N3       -1.98180447339793E-15 -3.23653232062949E+01
 N4       -1.98186252236003E-15 -3.23662712177891E+01
 N18      -1.98192677572050E-15 -3.23673205547983E+01
 N19      -1.98181544393136E-15 -3.23655023687023E+01
 N28       5.79538104350906E-15  9.46457549645176E+01
 N29       5.79557925430597E-15  9.46489919924843E+01
 N41       5.79544129644296E-15  9.46467389696029E+01
 N42       5.79565960942315E-15  9.46503042911363E+01
 N43       5.79567346793926E-15  9.46505306178799E+01
 N44       5.79555113858101E-15  9.46485328278504E+01
 N45       5.79550754740065E-15  9.46478209298502E+01
 N46       5.79544460025687E-15  9.46467929249785E+01
 N47       5.79550590869665E-15  9.46477941677829E+01
 N48       5.79556670870347E-15  9.46487871072471E+01
 N64      -1.98192712720936E-15 -3.23673262950470E+01
 N65      -1.98189319176966E-15 -3.23667720872586E+01
 N110     -1.98190343156424E-15 -3.23669393157949E+01
 N111     -1.98187864081345E-15 -3.23665344521100E+01
 N121     -1.98187223263922E-15 -3.23664297986828E+01
 N122     -1.98185879669625E-15 -3.23662103730822E+01
 N123     -1.98192926521095E-15 -3.23673612112627E+01
 N124     -1.98187590971347E-15 -3.23664898498626E+01
 N248      5.79577029088120E-15  9.46521118565197E+01
 N249      5.79590314162919E-15  9.46542814738832E+01
 N250      5.79576060668342E-15  9.46519537015677E+01
 N251      5.79575274927788E-15  9.46518253803971E+01
 N302     -1.98187034738506E-15 -3.23663990101459E+01
 N303     -1.98194882726166E-15 -3.23676806837951E+01
 N304     -1.98196722062203E-15 -3.23679810701658E+01
 N305     -1.98195783977192E-15 -3.23678278692573E+01
 
   
   !----------------------------------------------------------------------------------------------------------------!
   ! <EXCEPTION> <MATRICE0_12>                                                                                      !
   !                                                                                                                !
   !  Une des charges renseignées pour l'assemblage des vecteurs est déjà présente dans le mot-clé                  !
   !  CHARGE définissant les conditions de Dirichlet. Il est interdit de renseigner plus d'une fois la même charge. !
   !----------------------------------------------------------------------------------------------------------------!
   

 --------------------------------------------------------------------------------
 ASTER 11.03.00 CONCEPT Pr_5 CALCULE LE 24/06/2016 A 15:49:31 DE TYPE ACOU_HARMO 

                    ENTITES TOPOLOGIQUES SELECTIONNEES 
 GROUP_MA : ENTREE SORTIE                                                        


 ======>

 ------>
 CHAMP AUX NOEUDS DE NOM SYMBOLIQUE  INTE_NOEU                                   
 NUMERO D'ORDRE: 1 FREQ:   8.00000000000000E+01                                  
 NOEUD        INTX_R       INTX_I       INTY_R       INTY_I       INTZ_R       INTZ_I  
 N1        2.06505912356977E-29 -2.04649313128145E-02  7.88860905221012E-31 -6.15804534418910E+01  9.56570884778252E-30 -3.01908639210726E-02
 N2        1.35219541395428E-29  2.57259830908976E-02  1.26217744835362E-29 -6.16032873228978E+01  1.43705188730398E-29 -3.09421382104532E-02
 N3        2.93662186801520E-31  1.89707681914450E-03  7.76149767588056E-32  9.63354089486732E-03 -5.02499196614935E-31 -2.38044052408943E-03
 N4        2.44448658191350E-31 -1.78639588931234E-03  5.87697522529765E-31  1.02555200840815E-02 -1.02892807278888E-31 -1.77459795476872E-03
 N18      -8.16714667041712E-33  1.26000389203554E-03  2.55739422490320E-31  1.08581811390820E-02 -6.78811312176125E-32  1.07459795710258E-03
 N19       1.21947476666169E-31 -1.48481930078534E-03  2.38044941126262E-31  8.83342339053847E-03  1.82722603473739E-32  1.53048106347738E-03
 N28      -1.06866000754159E-29 -2.30112958705556E-02 -3.94430452610506E-30 -6.15864742333110E+01 -4.51052792975491E-30  3.03531858315653E-02
 N29      -5.36137970506088E-30  1.33129389756926E-02 -6.50810246807335E-30 -6.16031767689244E+01 -3.62906590539533E-30  4.21366925430481E-02
 N41      -2.20817497773719E-30 -2.85772312318520E-02  9.26911563634689E-30 -6.15814881910964E+01 -1.07207853319288E-29 -3.71028660089799E-02
 N42      -1.89935211115469E-30  2.38618787772143E-03  4.60168861378924E-30 -6.16331527869973E+01  3.71226206663880E-30 -3.62669912978161E-02
 N43       1.67590571900688E-29  3.97412977409461E-02  1.55800028781150E-29 -6.16104325894234E+01  2.82533922841607E-30 -1.56134976515405E-02
 N44       6.66371760757984E-32  3.96132600173764E-02 -5.12759588393658E-30 -6.15943965317489E+01 -5.59722186381325E-30  5.03795589541665E-03
 N45      -4.34673962504692E-30 -1.18993281455760E-02 -1.00579765415679E-29 -6.15938263143231E+01 -1.01861471793669E-29  3.70004278196221E-02
 N46      -2.75553630499419E-30 -7.22499984839467E-03 -6.31088724176809E-30 -6.15883649895951E+01 -7.74214207993947E-30  5.05613194447604E-02
 N47       5.00865595322821E-31 -2.73536416255336E-02  5.18394309145236E-30 -6.16280370916494E+01 -1.41390083370820E-30 -9.84533480089848E-03
 N48      -5.09601063284863E-30 -2.94236719554457E-02 -2.56379794196829E-30 -6.16250102925190E+01 -7.42301548815450E-31  5.30081524427845E-03
 N64       7.39266202976015E-32  7.03397096024013E-06  3.49171098917406E-31  1.02021338346984E-02  1.26479430566556E-32  1.76002416348605E-04
 N65       3.81704268649860E-31  6.10388990591579E-04 -8.59686978925852E-32  9.42739936265647E-03 -2.69082505886278E-31 -9.33515040750846E-04
 N110      1.70095725275850E-31  1.55555740697345E-03 -1.35103985598765E-31  9.86844412965942E-03 -4.54228571206704E-31 -1.26511314067802E-03
 N111      3.18491636756425E-31  2.25517207047508E-03 -9.78613152991764E-32  9.59203054003865E-03  4.31869665565552E-31  5.24882492005987E-05
 N121      1.00335683887883E-31 -1.10808473513713E-03  1.38089177012565E-31  8.59356703944985E-03  1.30770643223893E-31  1.89185855260972E-03
 N122      3.12217318109476E-31 -3.62694759246237E-04 -1.25402113503914E-31  8.13531579570993E-03  2.64815367353245E-31  2.53197048489616E-03
 N123      8.61612908870240E-32 -4.51742976887730E-04  3.94623045604945E-31  1.06222106041979E-02 -3.20887764441141E-31 -3.05901319141357E-04
 N124     -5.45850675956876E-32 -1.81420323099463E-03  3.72715592487540E-31  9.50219878464488E-03 -1.01394945357296E-31  1.25205763441250E-03
 N248     -3.36403266721712E-30 -2.42751035752789E-02  0.00000000000000E+00 -6.16558356883249E+01  9.81413387422429E-31 -2.17359833010542E-03
 N249      4.33384607962597E-30  1.90158675786570E-03 -7.28179297127088E-31 -6.16723333370679E+01  1.55048842028610E-30 -4.40161241270073E-03
 N250     -1.26353621772309E-30 -5.87194541837527E-03 -2.70466596075775E-30 -6.16381917416511E+01 -1.41864859493718E-30  1.26856013170170E-02
 N251     -3.85414078666629E-30 -1.18697199456931E-02 -1.64346021921044E-30 -6.16537732777140E+01  1.09309595841157E-30  3.78590090339256E-03
 N302      2.19387118631819E-31 -2.53756491819044E-04  3.37651630437540E-31  9.26282215565058E-03 -4.17114296236742E-32 -3.12797998853056E-04
 N303      1.57810100924634E-31  4.95089821947085E-04  2.03667091618950E-32  1.00167696206761E-02 -1.17290074008663E-31 -8.92257604690282E-04
 N304      2.90145965814736E-31 -7.28555188956215E-06  2.05225891167689E-31  1.13877739005888E-02  4.63871464831660E-32  2.30190935512064E-04
 N305      2.17180413465349E-31 -3.86794998147137E-04  3.73362154683156E-31  1.12732087997204E-02 -1.70088685743966E-31  4.92140357827851E-04
 

 ------>
 CHAMP AUX NOEUDS DE NOM SYMBOLIQUE  PRAC_NOEU                                   
 NUMERO D'ORDRE: 1 FREQ:   8.00000000000000E+01                                  
 NOEUD        PRES_R       PRES_I  
 N1        7.52315627561313E-15  1.22862465828532E+02
 N2        7.52345537385944E-15  1.22867350473582E+02
 N3       -1.72148111751492E-15 -2.81139201721423E+01
 N4       -1.72155090842600E-15 -2.81150599442160E+01
 N18      -1.72162815753731E-15 -2.81163215179426E+01
 N19      -1.72149430900607E-15 -2.81141356055418E+01
 N28       7.52324838190113E-15  1.22863970038367E+02
 N29       7.52360910973718E-15  1.22869861170999E+02
 N41       7.52335986488917E-15  1.22865790693729E+02
 N42       7.52375559908092E-15  1.22872253523534E+02
 N43       7.52378133861476E-15  1.22872673882022E+02
 N44       7.52355985269241E-15  1.22869056742411E+02
 N45       7.52347730012417E-15  1.22867708556660E+02
 N46       7.52336487853575E-15  1.22865872572791E+02
 N47       7.52347433859762E-15  1.22867660191261E+02
 N48       7.52358388960459E-15  1.22869449294977E+02
 N64      -1.72162858008880E-15 -2.81163284187320E+01
 N65      -1.72158778060674E-15 -2.81156621126250E+01
 N110     -1.72160009138056E-15 -2.81158631628189E+01
 N111     -1.72157028755243E-15 -2.81153764293681E+01
 N121     -1.72156258324174E-15 -2.81152506084261E+01
 N122     -1.72154642978164E-15 -2.81149868024029E+01
 N123     -1.72163115233012E-15 -2.81163704266208E+01
 N124     -1.72156700553337E-15 -2.81153228299292E+01
 N248      7.52395443878660E-15  1.22875500822361E+02
 N249      7.52419567411921E-15  1.22879440494318E+02
 N250      7.52393701920345E-15  1.22875216338979E+02
 N251      7.52392097581233E-15  1.22874954330518E+02
 N302     -1.72156031366375E-15 -2.81152135434048E+01
 N303     -1.72165466802885E-15 -2.81167544671252E+01
 N304     -1.72167678324702E-15 -2.81171156360465E+01
 N305     -1.72166550479196E-15 -2.81169314448974E+01
 
   
   !----------------------------------------------------------------------------------------------------------------!
   ! <EXCEPTION> <MATRICE0_12>                                                                                      !
   !                                                                                                                !
   !  Une des charges renseignées pour l'assemblage des vecteurs est déjà présente dans le mot-clé                  !
   !  CHARGE définissant les conditions de Dirichlet. Il est interdit de renseigner plus d'une fois la même charge. !
   !----------------------------------------------------------------------------------------------------------------!
   

 --------------------------------------------------------------------------------
 ASTER 11.03.00 CONCEPT Pr_6 CALCULE LE 24/06/2016 A 15:49:31 DE TYPE ACOU_HARMO 

                    ENTITES TOPOLOGIQUES SELECTIONNEES 
 GROUP_MA : ENTREE SORTIE                                                        


 ======>

 ------>
 CHAMP AUX NOEUDS DE NOM SYMBOLIQUE  INTE_NOEU                                   
 NUMERO D'ORDRE: 1 FREQ:   9.20000000000000E+01                                  
 NOEUD        INTX_R       INTX_I       INTY_R       INTY_I       INTZ_R       INTZ_I  
 N1       -1.72563323017096E-30 -3.56117464181082E-02  1.57772181044202E-30 -7.55995378039175E+01  7.53577868639838E-30 -5.22680616403827E-02
 N2        1.24453593006303E-30  4.45561807861588E-02  1.57772181044202E-30 -7.56388124715322E+01 -6.64407312214709E-30 -5.36682122371884E-02
 N3        4.97275111640784E-31  1.73513920650140E-03 -6.08593862426367E-32  8.81127320052121E-03  1.90955953985994E-31 -2.17724570528731E-03
 N4        4.87260275929971E-32 -1.63392916564431E-03  6.72149550591145E-32  9.38035673058612E-03  4.35741649917612E-31 -1.62318075968713E-03
 N18      -1.93468690710312E-31  1.15250926752398E-03 -8.32242477218334E-32  9.93173932716351E-03 -1.76870710476701E-31  9.82907778027658E-04
 N19      -2.06182837608806E-31 -1.35806784616317E-03 -2.09444881452112E-31  8.07947103700444E-03  4.81301930164523E-31  1.39986592856962E-03
 N28      -9.53450878268345E-30 -3.99728277493965E-02  5.52202633654708E-30 -7.56099596179650E+01  7.92481653516460E-30  5.26812664440837E-02
 N29       1.04131300603751E-29  2.29379652332505E-02 -9.66354608895739E-30 -7.56385557432271E+01  4.49550567618869E-30  7.33577631220351E-02
 N41      -4.53960947191515E-30 -4.97317277607713E-02  3.74708929979981E-30 -7.56011286399316E+01  5.31267775159219E-31 -6.43220561717523E-02
 N42      -4.44934755518820E-30  4.02616897673042E-03  9.99223813279948E-30 -7.56904288589763E+01 -5.70312794898430E-30 -6.29201898991653E-02
 N43       9.73557586887748E-31  6.89020485983870E-02  5.91645678915759E-30 -7.56509322743615E+01 -1.91389288223482E-30 -2.70639235957781E-02
 N44       1.01899027427584E-29  6.86446906056221E-02 -4.93038065763132E-30 -7.56232763140347E+01  9.55713845953000E-30  8.80566332436638E-03
 N45       2.71036121073616E-30 -2.07339438704933E-02  2.16936748935778E-30 -7.56224947004189E+01  6.85149577715759E-31  6.42543322731741E-02
 N46       1.23633387591237E-29 -1.26407549472810E-02 -9.86076131526265E-31 -7.56131623648461E+01 -6.64638423808035E-31  8.78411336541791E-02
 N47      -2.78478464644426E-30 -4.76165666247452E-02 -7.88860905221012E-31 -7.56818611708643E+01 -3.58378419715823E-30 -1.69873436900787E-02
 N48      -1.99815231730176E-30 -5.11430207167942E-02  1.97215226305253E-31 -7.56765491650681E+01 -5.66748219559693E-30  9.21602261803025E-03
 N64      -2.50309202826810E-31  6.42333251306755E-06 -4.72334318860970E-32  9.33166401435055E-03  5.14135524906531E-31  1.61038323714259E-04
 N65       3.75932497347774E-32  5.58297456001802E-04  1.12666901746653E-32  8.62289846234554E-03  3.14672878788569E-31 -8.53819248841999E-04
 N110      6.46269866963442E-31  1.42278481134168E-03 -4.46173770449710E-32  9.02632166243599E-03  1.87637737185977E-32 -1.15716913520576E-03
 N111      1.88644838052730E-31  2.06269833186338E-03 -9.89446508928942E-33  8.77349133043352E-03  3.67741652711244E-33  4.80160708891360E-05
 N121     -1.58861384705719E-31 -1.01349248782373E-03 -8.60649943898046E-32  7.86021209981791E-03  6.09015159601701E-32  1.73039793867383E-03
 N122     -8.02149821837284E-32 -3.31731428485872E-04 -2.16245821568229E-31  7.44107707124703E-03 -6.61256009343205E-32  2.31586698133235E-03
 N123     -7.43065042471975E-32 -4.13113042033349E-04 -1.46590782052788E-31  9.71587883455430E-03  2.51307096773999E-31 -2.79839166422421E-04
 N124     -4.36734707545187E-32 -1.65933745997054E-03 -1.76463331154480E-31  8.69126459489094E-03  1.92313885060064E-31  1.14521643495279E-03
 N248     -5.07587503528006E-30 -4.23345152855881E-02  3.70764625453876E-30 -7.57295868534753E+01 -9.14599424519430E-30 -3.71890503195581E-03
 N249     -4.56528359955841E-30  3.21193053744975E-03  6.18952402558025E-30 -7.57580165273881E+01 -2.60996840867354E-30 -7.62094462959234E-03
 N250      8.67974254401813E-30 -1.03119759871085E-02 -7.83226184469433E-30 -7.56989555890326E+01  4.34206064703025E-30  2.21638065461368E-02
 N251     -1.69977392177867E-31 -2.07761798210317E-02 -3.08970521211563E-30 -7.57260991716945E+01 -9.55737543919113E-30  6.65759815791086E-03
 N302     -2.92110346179338E-31 -2.32112040852513E-04 -3.13204357205974E-32  8.47240478845995E-03  3.45016431683860E-31 -2.86072990012002E-04
 N303      1.70682610422071E-31  4.52816661806435E-04  5.26902333951941E-32  9.16212077634517E-03  1.89791963806552E-31 -8.16108149320741E-04
 N304     -9.03494479546252E-32 -6.65971105332083E-06 -1.13440282989946E-31  1.04161732359807E-02  2.86028338408184E-32  2.10532880905000E-04
 N305     -5.57351444000898E-32 -3.53753060801540E-04 -1.65936060512035E-31  1.03113315210035E-02  6.30548604002227E-32  4.50110801643602E-04
 

 ------>
 CHAMP AUX NOEUDS DE NOM SYMBOLIQUE  PRAC_NOEU                                   
 NUMERO D'ORDRE: 1 FREQ:   9.20000000000000E+01                                  
 NOEUD        PRES_R       PRES_I  
 N1        9.22660832175252E-15  1.50681948920725E+02
 N2        9.22709819483760E-15  1.50689949155330E+02
 N3       -1.53525959374168E-15 -2.50726918946850E+01
 N4       -1.53534190799367E-15 -2.50740361884363E+01
 N18      -1.53543301709562E-15 -2.50755241129875E+01
 N19      -1.53527515488796E-15 -2.50729460274893E+01
 N28       9.22675665324680E-15  1.50684371357861E+02
 N29       9.22734617462103E-15  1.50693998972528E+02
 N41       9.22694051723164E-15  1.50687374084606E+02
 N42       9.22758576059714E-15  1.50697911708449E+02
 N43       9.22762833108424E-15  1.50698606937263E+02
 N44       9.22726747138614E-15  1.50692713651161E+02
 N45       9.22712952401356E-15  1.50690460799601E+02
 N46       9.22694783057889E-15  1.50687493520631E+02
 N47       9.22712465468110E-15  1.50690381277367E+02
 N48       9.22730267330421E-15  1.50693288542111E+02
 N64      -1.53543351542860E-15 -2.50755322513826E+01
 N65      -1.53538539526935E-15 -2.50747463895443E+01
 N110     -1.53539991469741E-15 -2.50749835097992E+01
 N111     -1.53536476491478E-15 -2.50744094702858E+01
 N121     -1.53535567825371E-15 -2.50742610738489E+01
 N122     -1.53533662655941E-15 -2.50739499360693E+01
 N123     -1.53543655166216E-15 -2.50755818368397E+01
 N124     -1.53536089604855E-15 -2.50743462869054E+01
 N248      9.22790826473154E-15  1.50703178600661E+02
 N249      9.22830200183228E-15  1.50709608815495E+02
 N250      9.22788001641195E-15  1.50702717270592E+02
 N251      9.22785214287551E-15  1.50702262061197E+02
 N302     -1.53535299734050E-15 -2.50742172912137E+01
 N303     -1.53546428251782E-15 -2.50760347160809E+01
 N304     -1.53549036790283E-15 -2.50764607227471E+01
 N305     -1.53547706552549E-15 -2.50762434784388E+01
 
   
   !----------------------------------------------------------------------------------------------------------------!
   ! <EXCEPTION> <MATRICE0_12>                                                                                      !
   !                                                                                                                !
   !  Une des charges renseignées pour l'assemblage des vecteurs est déjà présente dans le mot-clé                  !
   !  CHARGE définissant les conditions de Dirichlet. Il est interdit de renseigner plus d'une fois la même charge. !
   !----------------------------------------------------------------------------------------------------------------!
   

 --------------------------------------------------------------------------------
 ASTER 11.03.00 CONCEPT Pr_7 CALCULE LE 24/06/2016 A 15:49:31 DE TYPE ACOU_HARMO 

                    ENTITES TOPOLOGIQUES SELECTIONNEES 
 GROUP_MA : ENTREE SORTIE                                                        


 ======>

 ------>
 CHAMP AUX NOEUDS DE NOM SYMBOLIQUE  INTE_NOEU                                   
 NUMERO D'ORDRE: 1 FREQ:   1.04000000000000E+02                                  
 NOEUD        INTX_R       INTX_I       INTY_R       INTY_I       INTZ_R       INTZ_I  
 N1        2.36889383159630E-30 -5.68431504216026E-02  5.52202633654708E-30 -8.97533627029333E+01 -2.28800477393204E-31 -8.31408196395771E-02
 N2       -1.18406172980927E-29  7.08922985672083E-02 -1.49883571991992E-29 -8.98155476581212E+01  2.44269546706522E-29 -8.54773569766344E-02
 N3        6.28394829667098E-32  1.62616042438047E-03  1.42904001873533E-31  8.25793594802867E-03  2.22565279198250E-31 -2.04050329355760E-03
 N4        7.58936768710095E-32 -1.53133162054016E-03 -9.88965026442846E-32  8.79148800802151E-03 -1.18360432144748E-31 -1.52130357354862E-03
 N18       1.28710800963060E-31  1.08018924699376E-03 -3.35834034052524E-32  9.30841698735838E-03 -7.05458358516046E-32  9.21216348954223E-04
 N19      -2.91164496404893E-31 -1.27276662188240E-03 -1.03711327505253E-31  7.57211321678501E-03 -8.02992416187953E-32  1.31197593357799E-03
 N28       4.45352040340104E-30 -6.37290360750013E-02 -3.94430452610506E-30 -8.97699351322650E+01  1.60946113592553E-29  8.39379794173588E-02
 N29      -2.99373772792843E-30  3.63669786395956E-02  1.02551917678732E-29 -8.98150637086410E+01  1.69973428724382E-29  1.17128107117537E-01
 N41       6.16451656599466E-30 -7.93860277223615E-02  0.00000000000000E+00 -8.97556700975330E+01  3.85956360855202E-31 -1.02410357573705E-01
 N42      -3.84794383122088E-30  6.28909471775219E-03 -6.17941042423126E-30 -8.98975508312212E+01  3.70035339981601E-30 -1.00231081793953E-01
 N43      -6.56857666832711E-30  1.09708065135495E-01  3.94430452610506E-31 -8.98345464056537E+01 -4.31909049328282E-30 -4.30878371835726E-02
 N44      -1.08766893609269E-29  1.09258916235431E-01  2.16936748935778E-30 -8.97906757022326E+01 -1.85965147276358E-29  1.40950776424927E-02
 N45       7.51630271983576E-30 -3.31261078421320E-02  9.86076131526265E-31 -8.97896579629397E+01  9.98556157565894E-30  1.02417804975238E-01
 N46      -3.35193662346015E-30 -2.02512126189599E-02  9.66354608895739E-30 -8.97749485285353E+01  2.03318498299016E-29  1.40054464634175E-01
 N47       5.25008502839960E-30 -7.60249994909923E-02  2.70466596075775E-30 -8.98842431645729E+01 -6.37964294078272E-30 -2.69608970033411E-02
 N48       5.03418828163380E-30 -8.15722214410103E-02 -3.54987407349455E-30 -8.98757120512773E+01  2.42253098054748E-30  1.46982765121334E-02
 N64      -1.65537691074134E-31  6.00900819080345E-06  8.30878276841060E-32  8.74599921408035E-03 -1.20054147098445E-31  1.50987865006351E-04
 N65       4.44197686079687E-32  5.23245615358813E-04  8.50298070446965E-32  8.08157423421959E-03  2.08546615688988E-31 -8.00183402233111E-04
 N110     -1.14793449393581E-32  1.33343725147907E-03 -6.36198858295917E-32  8.45968823152079E-03 -1.46771911178511E-31 -1.08454224245541E-03
 N111     -2.19586106315526E-32  1.93318018526302E-03  2.01981902917611E-32  8.22272476161561E-03 -1.14253160843427E-31  4.50092690482534E-05
 N121     -2.23537271967058E-31 -9.49833543172486E-04  3.77482269099898E-32  7.36675647874295E-03 -1.06618278015062E-31  1.62175069808445E-03
 N122     -4.18423326745818E-32 -3.10893071677007E-04 -7.49427489609683E-32  6.97394509784046E-03  1.01833545809475E-32  2.17044621869456E-03
 N123     -1.22747941299305E-32 -3.87093623228632E-04 -3.23281097807857E-32  9.10607895867519E-03 -5.90976762176146E-32 -2.62316758678452E-04
 N124     -1.88358957826610E-31 -1.55511702025704E-03 -1.97624486418435E-31  8.14559500893761E-03  7.75280842163928E-32  1.07332795688911E-03
 N248      5.31827739290550E-30 -6.76761900666425E-02 -5.52202633654708E-31 -8.99597117224302E+01 -1.12351879793062E-29 -5.87007428463121E-03
 N249     -2.29597516093265E-30  5.02091177382940E-03  4.61180221513822E-30 -9.00047863428733E+01 -1.08772375102188E-29 -1.21257424247680E-02
 N250     -6.83697413640839E-30 -1.65623850169786E-02  2.53562433821040E-30 -8.99108945213007E+01 -3.10749484359003E-30  3.54710317278356E-02
 N251      5.58384279461690E-30 -3.32949140785536E-02 -2.56379794196829E-30 -8.99542546048562E+01 -1.15960292105981E-30  1.06983003712153E-02
 N302     -6.59296225161514E-32 -2.17551543515513E-04  2.71772789277344E-31  7.94056993402304E-03 -3.55006817112176E-32 -2.68079886634450E-04
 N303      6.41320252083579E-32  4.24364380124625E-04  8.50217823365948E-32  8.58710231361290E-03 -6.50859937304533E-32 -7.64867000589885E-04
 N304     -5.17530195859125E-32 -6.23723022273839E-06  7.69439105438082E-32  9.76247639674430E-03 -1.80752004744021E-32  1.97300866918198E-04
 N305     -1.36464710990834E-31 -3.31508776687220E-04 -3.67783836165663E-32  9.66415957749581E-03  6.96870129617832E-32  4.21819816295261E-04
 

 ------>
 CHAMP AUX NOEUDS DE NOM SYMBOLIQUE  PRAC_NOEU                                   
 NUMERO D'ORDRE: 1 FREQ:   1.04000000000000E+02                                  
 NOEUD        PRES_R       PRES_I  
 N1        1.09412203325027E-14  1.78683688066149E+02
 N2        1.09419676510890E-14  1.78695892704856E+02
 N3       -1.39790576995313E-15 -2.28295337223173E+01
 N4       -1.39800154738719E-15 -2.28310978865177E+01
 N18      -1.39810755593467E-15 -2.28328291374800E+01
 N19      -1.39792387964006E-15 -2.28298294759492E+01
 N28       1.09414440947812E-14  1.78687342381477E+02
 N29       1.09423420851430E-14  1.78702007677014E+02
 N41       1.09417258083609E-14  1.78691943113377E+02
 N42       1.09427071533854E-14  1.78707969693861E+02
 N43       1.09427725413698E-14  1.78709037560685E+02
 N44       1.09422240309329E-14  1.78700079705452E+02
 N45       1.09420107915629E-14  1.78696597242261E+02
 N46       1.09417361339168E-14  1.78692111742502E+02
 N47       1.09420032744515E-14  1.78696474478516E+02
 N48       1.09422734313832E-14  1.78700886476030E+02
 N64      -1.39810813573057E-15 -2.28328386062657E+01
 N65      -1.39805214567030E-15 -2.28319242191900E+01
 N110     -1.39806903933722E-15 -2.28322001137081E+01
 N111     -1.39802814325411E-15 -2.28315322299861E+01
 N121     -1.39801757054638E-15 -2.28313595645657E+01
 N122     -1.39799540326105E-15 -2.28309975453230E+01
 N123     -1.39811167178058E-15 -2.28328963543448E+01
 N124     -1.39802364436126E-15 -2.28314587574901E+01
 N248      1.09431958865530E-14  1.78715951312201E+02
 N249      1.09437951441230E-14  1.78725737931009E+02
 N250      1.09431531202598E-14  1.78715252885630E+02
 N251      1.09431089505910E-14  1.78714531540196E+02
 N302     -1.39801444574700E-15 -2.28313085327189E+01
 N303     -1.39814393225572E-15 -2.28334232078859E+01
 N304     -1.39817428649486E-15 -2.28339189302307E+01
 N305     -1.39815880826211E-15 -2.28336661515068E+01
 
   
   !----------------------------------------------------------------------------------------------------------------!
   ! <EXCEPTION> <MATRICE0_12>                                                                                      !
   !                                                                                                                !
   !  Une des charges renseignées pour l'assemblage des vecteurs est déjà présente dans le mot-clé                  !
   !  CHARGE définissant les conditions de Dirichlet. Il est interdit de renseigner plus d'une fois la même charge. !
   !----------------------------------------------------------------------------------------------------------------!
   

 --------------------------------------------------------------------------------
 ASTER 11.03.00 CONCEPT Pr_8 CALCULE LE 24/06/2016 A 15:49:31 DE TYPE ACOU_HARMO 

                    ENTITES TOPOLOGIQUES SELECTIONNEES 
 GROUP_MA : ENTREE SORTIE                                                        


 ======>

 ------>
 CHAMP AUX NOEUDS DE NOM SYMBOLIQUE  INTE_NOEU                                   
 NUMERO D'ORDRE: 1 FREQ:   1.16000000000000E+02                                  
 NOEUD        INTX_R       INTX_I       INTY_R       INTY_I       INTZ_R       INTZ_I  
 N1       -2.82341329847169E-29 -8.56078236630283E-02  1.49883571991992E-29 -1.04268367285542E+02 -1.68326277139444E-29 -1.24884488328722E-01
 N2       -5.55900419147932E-30  1.06505894885104E-01  5.52202633654708E-30 -1.04361434955812E+02 -1.42488001005545E-29 -1.28521092049704E-01
 N3        1.23656739491813E-31  1.55581121317448E-03 -1.72611471265706E-31  7.90076710974098E-03 -7.36668203728118E-32 -1.95223318445061E-03
 N4        1.30000271246138E-33 -1.46511114984255E-03 -1.46852158259527E-31  8.41146370561388E-03  1.42025296336406E-31 -1.45556550668898E-03
 N18       1.14481488866131E-31  1.03352965424828E-03  7.17890386770342E-32  8.90622009250419E-03  1.77347302906299E-32  8.81408844986166E-04
 N19      -2.16907859986612E-32 -1.21770005211318E-03 -1.56963290467560E-31  7.24463229056969E-03  1.89114283476674E-31  1.25525231575969E-03
 N28      -8.56730676461218E-30 -9.58928819228470E-02  3.39210189245035E-29 -1.04293249409337E+02  1.86815204605562E-29  1.26236940105445E-01
 N29       2.78393173461175E-30  5.44894429496233E-02 -2.22853205724936E-29 -1.04360614426114E+02  7.76626435249292E-30  1.76436578121944E-01
 N41      -8.40302494035595E-30 -1.19564818400569E-01 -9.86076131526265E-31 -1.04271571745560E+02  1.44271412134048E-29 -1.53939299011138E-01
 N42      -1.21165388614586E-29  9.31326979372542E-03 -7.62565541713645E-30 -1.04484488271063E+02  1.02627670923211E-29 -1.50725781457894E-01
 N43      -1.61479596187148E-29  1.64914300649248E-01 -1.67632942359465E-29 -1.04389642672145E+02  7.27394851045893E-30 -6.47687076976082E-02
 N44       6.07014599871969E-30  1.64192740840239E-01 -2.01159530831358E-29 -1.04323888986515E+02  3.57664449972154E-30  2.12693444858603E-02
 N45      -9.52223097928798E-30 -4.99256447559426E-02  1.71577246885570E-29 -1.04322619381831E+02 -5.41263351570589E-30  1.54076955425643E-01
 N46       9.89398360680333E-31 -3.05841379307008E-02 -1.77493703674728E-29 -1.04300682280345E+02  1.15555796663234E-33  2.10744295234785E-01
 N47      -1.28041325359847E-30 -1.14520277652600E-01 -2.02849947056832E-30 -1.04464872867669E+02  1.32293778677054E-29 -4.04315556630131E-02
 N48      -9.86634651210137E-30 -1.22781590859532E-01  2.01159530831358E-29 -1.04451960517724E+02  4.47181673787272E-30  2.21173755910919E-02
 N64      -1.06690500387977E-31  5.73736153761885E-06 -1.44669437655888E-31  8.36809926829062E-03  3.73472422770373E-32  1.44524626277828E-04
 N65       1.07245709879757E-31  5.00623607410891E-04 -2.14247669250928E-31  7.73223018711387E-03 -5.83616958460095E-32 -7.65555868706578E-04
 N110      2.25301704660900E-31  1.27576569563384E-03 -2.22123920252661E-32  8.09401732330827E-03  1.15636043744250E-31 -1.03767901556107E-03
 N111      1.34450974976996E-31  1.84958512697893E-03  4.34056461216273E-32  7.86729158431595E-03  7.76966030865267E-32  4.30718207865420E-05
 N121      7.48953530287432E-32 -9.08737954133054E-04  3.18139552688467E-32  7.04830036936535E-03 -3.01678870195032E-32  1.55162857726205E-03
 N122      1.50309804362809E-31 -2.97439977358784E-04  4.18649021661175E-32  6.67248134657187E-03  2.02042088228373E-32  2.07658486921330E-03
 N123      1.94935922607677E-32 -3.70269147122133E-04  2.52434389139327E-32  8.71259766159410E-03 -2.80692467279826E-32 -2.51025994231659E-04
 N124      1.02023129538376E-31 -1.48783851011472E-03  1.03482623324357E-31  7.79342617091186E-03 -6.22759979946996E-32  1.02693683104382E-03
 N248     -8.72609005887719E-30 -1.02042354767978E-01  1.73549399148623E-30 -1.04577708182446E+02  9.00424850962639E-30 -8.76876451954831E-03
 N249     -1.11353121227667E-29  7.43943505050966E-03 -9.40564925455822E-30 -1.04645241034441E+02  6.82872535927664E-30 -1.82214767113932E-02
 N250      3.33375077202323E-30 -2.50617168831995E-02 -1.27344688985678E-29 -1.04504272874113E+02  6.11957361507814E-31  5.35230532557111E-02
 N251     -8.14699913609525E-30 -5.02956104767939E-02  3.35265884718930E-30 -1.04569614654746E+02 -5.96007358541114E-30  1.61884662878910E-02
 N302     -3.72791576442377E-33 -2.08159118829498E-04 -1.18835896099769E-31  7.59736595080085E-03 -1.79826185393313E-32 -2.56454805481652E-04
 N303      1.73063503700000E-31  4.05992825940436E-04 -2.84435778661690E-32  8.21607408624000E-03  6.43205118091978E-32 -7.31795372228680E-04
 N304      1.15611691419616E-31 -5.96288204604274E-06  7.94747028613545E-32  9.34069155164615E-03  3.21890790260811E-32  1.88755781438149E-04
 N305      5.01556436711354E-32 -3.17139335063023E-04  8.65499160365164E-32  9.24656369314581E-03 -8.76961237852268E-32  4.03549147380056E-04
 

 ------>
 CHAMP AUX NOEUDS DE NOM SYMBOLIQUE  PRAC_NOEU                                   
 NUMERO D'ORDRE: 1 FREQ:   1.16000000000000E+02                                  
 NOEUD        PRES_R       PRES_I  
 N1        1.26934620068939E-14  2.07299966255276E+02
 N2        1.26945462028023E-14  2.07317672518162E+02
 N3       -1.29469406290711E-15 -2.11439586304972E+01
 N4       -1.29480442068490E-15 -2.11457609097808E+01
 N18      -1.29492656420015E-15 -2.11477556647637E+01
 N19      -1.29471493381790E-15 -2.11442994783368E+01
 N28       1.26937839662884E-14  2.07305224251210E+02
 N29       1.26950852559489E-14  2.07326475924122E+02
 N41       1.26941938973118E-14  2.07311918932870E+02
 N42       1.26956143153346E-14  2.07335116119582E+02
 N43       1.26957096934621E-14  2.07336673762611E+02
 N44       1.26949161664055E-14  2.07323714482318E+02
 N45       1.26946037663759E-14  2.07318612602660E+02
 N46       1.26942080876615E-14  2.07312150678868E+02
 N47       1.26945926722514E-14  2.07318431421858E+02
 N48       1.26949830982375E-14  2.07324807562087E+02
 N64      -1.29492723222115E-15 -2.11477665743746E+01
 N65      -1.29486271942248E-15 -2.11467130004182E+01
 N110     -1.29488218414292E-15 -2.11470308834265E+01
 N111     -1.29483506592211E-15 -2.11462613844847E+01
 N121     -1.29482288390660E-15 -2.11460624370735E+01
 N122     -1.29479734267228E-15 -2.11456453170625E+01
 N123     -1.29493131072295E-15 -2.11478331813637E+01
 N124     -1.29482988572271E-15 -2.11461767854083E+01
 N248      1.26963197800009E-14  2.07346637231904E+02
 N249      1.26971876380419E-14  2.07360810429296E+02
 N250      1.26962581438038E-14  2.07345630636416E+02
 N251      1.26961922500984E-14  2.07344554510541E+02
 N302     -1.29481927644481E-15 -2.11460035227517E+01
 N303     -1.29496847450835E-15 -2.11484401120382E+01
 N304     -1.29500345267810E-15 -2.11490113489006E+01
 N305     -1.29498561798963E-15 -2.11487200863345E+01
 
   
   !----------------------------------------------------------------------------------------------------------------!
   ! <EXCEPTION> <MATRICE0_12>                                                                                      !
   !                                                                                                                !
   !  Une des charges renseignées pour l'assemblage des vecteurs est déjà présente dans le mot-clé                  !
   !  CHARGE définissant les conditions de Dirichlet. Il est interdit de renseigner plus d'une fois la même charge. !
   !----------------------------------------------------------------------------------------------------------------!
   

 --------------------------------------------------------------------------------
 ASTER 11.03.00 CONCEPT Pr_9 CALCULE LE 24/06/2016 A 15:49:32 DE TYPE ACOU_HARMO 

                    ENTITES TOPOLOGIQUES SELECTIONNEES 
 GROUP_MA : ENTREE SORTIE                                                        


 ======>

 ------>
 CHAMP AUX NOEUDS DE NOM SYMBOLIQUE  INTE_NOEU                                   
 NUMERO D'ORDRE: 1 FREQ:   1.28000000000000E+02                                  
 NOEUD        INTX_R       INTX_I       INTY_R       INTY_I       INTZ_R       INTZ_I  
 N1        1.16249131443214E-29 -1.23698817967161E-01  1.41994962939782E-29 -1.19342737581902E+02  8.51569184210260E-30 -1.80060800337791E-01
 N2       -2.26751287932376E-29  1.53583938993184E-01  6.31088724176809E-30 -1.19476506678202E+02 -3.95200824588261E-30 -1.85458196762928E-01
 N3       -7.27158924627706E-32  1.51557436610412E-03 -2.17630083715758E-32  7.69651848307086E-03 -5.64839141502319E-32 -1.90174817777153E-03
 N4       -1.69903132281411E-31 -1.42724849315088E-03  1.19600249546447E-31  8.19425197716896E-03 -2.21120831739960E-32 -1.41800214366998E-03
 N18      -6.48797650015450E-33  1.00687625887386E-03 -1.68157758269311E-32  8.67641851765031E-03  6.41831200294737E-32  8.58662484806048E-04
 N19       2.97327472226932E-31 -1.18620161224374E-03 -1.04000216996911E-32  7.05737307108215E-03 -1.07334483213131E-31  1.22282509082663E-03
 N28      -2.11929331080371E-29 -1.38458971692275E-01  1.41994962939782E-29 -1.19378592956689E+02  2.42389839080800E-29  1.82189839829809E-01
 N29      -1.26732931095485E-29  7.84002477653419E-02  2.16936748935778E-29 -1.19475202225768E+02  5.07289947351598E-31  2.54982963887973E-01
 N41       7.99569075711805E-30 -1.72774393407310E-01 -3.94430452610506E-30 -1.19347037762361E+02  2.14375262109743E-29 -2.22085614766677E-01
 N42      -4.37417208969229E-30  1.32662341582259E-02  4.99611906639974E-30 -1.19653772573633E+02 -5.18242068968680E-30 -2.17526544966563E-01
 N43       7.18294832058663E-30  2.37924026585361E-01  2.76101316827354E-30 -1.19516770163058E+02 -1.48169494341488E-29 -9.34454179453528E-02
 N44       6.87826620338457E-30  2.36825822343946E-01  7.09974814698911E-30 -1.19422144217777E+02 -2.61317397091752E-29  3.07783552596339E-02
 N45      -7.84402377399755E-30 -7.21853833799060E-02  8.28303950482062E-30 -1.19420623978521E+02  1.09762599390517E-29  2.22428567115767E-01
 N46      -1.95463593020833E-29 -4.42946707138844E-02  2.95822839457879E-29 -1.19389187280828E+02  1.89134024258604E-29  3.04291333642154E-01
 N47       6.13931439700811E-30 -1.65505899465742E-01  7.21244256202068E-30 -1.19625945537103E+02  3.08577998346707E-30 -5.82198060268537E-02
 N48      -6.48922835461835E-30 -1.77332274655562E-01  4.73316543132607E-30 -1.19607205308899E+02  2.85942818843173E-30  3.19299742343443E-02
 N64      -2.58681481098074E-32  5.57635913553160E-06  3.46185907503606E-32  8.15217812419086E-03  4.26789084941750E-33  1.40861113192265E-04
 N65      -1.66261920980304E-32  4.87691550428830E-04  6.99473681677139E-32  7.53255123264043E-03 -5.50740732456297E-32 -7.45745057580140E-04
 N110     -2.12979765370873E-31  1.24278679333331E-03  1.96316458997872E-31  7.88501491711647E-03  8.68012613581276E-32 -1.01090166343360E-03
 N111     -6.13017482767381E-32  1.80178963881514E-03  9.36724176701342E-32  7.66413826324761E-03 -1.38832465600477E-32  4.19684824762194E-05
 N121      5.61784736981142E-32 -8.85230624764601E-04 -1.94735591501854E-31  6.86627094162129E-03  2.10212244164329E-31  1.51153923770319E-03
 N122     -7.73020131428427E-32 -2.89743633224008E-04 -5.63214138111742E-32  6.50017032791429E-03  1.16449548528051E-31  2.02291663354152E-03
 N123     -7.46839521246913E-32 -3.60608390221306E-04  2.40741243048404E-32  8.48776274681923E-03 -1.02172088182512E-32 -2.44595689935548E-04
 N124      9.41599186873072E-32 -1.44935669651255E-03 -6.95260709923792E-32  7.59210505080269E-03 -1.77712176352794E-32  1.00042343069478E-03
 N248     -5.78991356216163E-30 -1.47592372477857E-01 -6.31088724176809E-30 -1.19787989925226E+02 -1.08939974525959E-29 -1.25892355562677E-02
 N249     -3.83064502969476E-30  1.06019332670760E-02 -4.49043899895038E-30 -1.19885148107303E+02 -1.03432215811774E-29 -2.62858866376349E-02
 N250     -1.30648131724886E-29 -3.63554898802591E-02  2.70466596075775E-30 -1.19681979142449E+02 -1.03097918817965E-29  7.74549967729758E-02
 N251     -2.99665972476593E-30 -7.28582018528648E-02 -2.23510589812620E-30 -1.19776443676313E+02 -4.33530943144469E-30  2.34761871792364E-02
 N302      1.63534774086397E-33 -2.02796231397828E-04  3.75556339155511E-32  7.40121820932039E-03  9.71165220784954E-33 -2.49792292477131E-04
 N303     -6.06540352161770E-32  3.95478708426644E-04  9.11446346181259E-32  8.00408217397436E-03  3.10288190820454E-32 -7.12887990082208E-04
 N304     -3.22445976242704E-32 -5.80377930690503E-06 -1.78298983132725E-32  9.09971303024061E-03  4.75218511800147E-32  1.83863803507589E-04
 N305     -2.33801661769996E-32 -3.08907070535477E-04 -6.80300361248641E-32  9.00795004732978E-03  6.67545911686691E-32  3.93088420337256E-04
 

 ------>
 CHAMP AUX NOEUDS DE NOM SYMBOLIQUE  PRAC_NOEU                                   
 NUMERO D'ORDRE: 1 FREQ:   1.28000000000000E+02                                  
 NOEUD        PRES_R       PRES_I  
 N1        1.45060470784384E-14  2.36901726906698E+02
 N2        1.45075622458307E-14  2.36926471468042E+02
 N3       -1.21648483856608E-15 -1.98667050681559E+01
 N4       -1.21661109332924E-15 -1.98687669649125E+01
 N18      -1.21675082788397E-15 -1.98710490033717E+01
 N19      -1.21650872142163E-15 -1.98670951047863E+01
 N28       1.45064940553785E-14  2.36909026594092E+02
 N29       1.45083108566646E-14  2.36938697210752E+02
[...]
 * ASSEMBLAGE               :       0.06 :       0.00 :       0.06 :       0.06 *
 * DYNA_VIBRA               :       0.03 :       0.00 :       0.03 :       0.03 *
 * CALC_CHAMP               :       0.05 :       0.00 :       0.05 :       0.06 *
 * IMPR_RESU                :       0.01 :       0.00 :       0.01 :       0.00 *
 * DETRUIRE                 :       0.01 :       0.00 :       0.01 :       0.01 *
 * ASSEMBLAGE               :       0.06 :       0.00 :       0.06 :       0.06 *
 * DYNA_VIBRA               :       0.03 :       0.00 :       0.03 :       0.03 *
 * CALC_CHAMP               :       0.05 :       0.01 :       0.06 :       0.06 *
 * IMPR_RESU                :       0.01 :       0.00 :       0.01 :       0.01 *
 * DETRUIRE                 :       0.01 :       0.00 :       0.01 :       0.01 *
 * ASSEMBLAGE               :       0.06 :       0.00 :       0.06 :       0.06 *
 * DYNA_VIBRA               :       0.02 :       0.01 :       0.03 :       0.03 *
 * CALC_CHAMP               :       0.05 :       0.00 :       0.05 :       0.06 *
 * IMPR_RESU                :       0.01 :       0.00 :       0.01 :       0.00 *
 * DETRUIRE                 :       0.01 :       0.00 :       0.01 :       0.02 *
 * ASSEMBLAGE               :       0.06 :       0.00 :       0.06 :       0.06 *
 * DYNA_VIBRA               :       0.03 :       0.00 :       0.03 :       0.03 *
 * CALC_CHAMP               :       0.05 :       0.02 :       0.07 :       0.06 *
 * IMPR_RESU                :       0.01 :       0.00 :       0.01 :       0.01 *
 * DETRUIRE                 :       0.01 :       0.00 :       0.01 :       0.01 *
 * ASSEMBLAGE               :       0.06 :       0.00 :       0.06 :       0.06 *
 * DYNA_VIBRA               :       0.03 :       0.00 :       0.03 :       0.03 *
 * CALC_CHAMP               :       0.06 :       0.00 :       0.06 :       0.06 *
 * IMPR_RESU                :       0.00 :       0.00 :       0.00 :       0.01 *
 * DETRUIRE                 :       0.02 :       0.00 :       0.02 :       0.01 *
 * ASSEMBLAGE               :       0.06 :       0.00 :       0.06 :       0.06 *
 * DYNA_VIBRA               :       0.03 :       0.00 :       0.03 :       0.03 *
 * CALC_CHAMP               :       0.05 :       0.00 :       0.05 :       0.06 *
 * IMPR_RESU                :       0.01 :       0.00 :       0.01 :       0.01 *
 * DETRUIRE                 :       0.01 :       0.00 :       0.01 :       0.01 *
 * ASSEMBLAGE               :       0.06 :       0.01 :       0.07 :       0.06 *
 * DYNA_VIBRA               :       0.03 :       0.00 :       0.03 :       0.03 *
 * CALC_CHAMP               :       0.06 :       0.00 :       0.06 :       0.06 *
 * IMPR_RESU                :       0.00 :       0.00 :       0.00 :       0.01 *
 * DETRUIRE                 :       0.01 :       0.00 :       0.01 :       0.01 *
 * ASSEMBLAGE               :       0.06 :       0.00 :       0.06 :       0.06 *
 * DYNA_VIBRA               :       0.02 :       0.00 :       0.02 :       0.03 *
 * CALC_CHAMP               :       0.06 :       0.00 :       0.06 :       0.06 *
 * IMPR_RESU                :       0.01 :       0.00 :       0.01 :       0.01 *
 * DETRUIRE                 :       0.01 :       0.00 :       0.01 :       0.01 *
 * ASSEMBLAGE               :       0.06 :       0.00 :       0.06 :       0.06 *
 * DYNA_VIBRA               :       0.03 :       0.00 :       0.03 :       0.03 *
 * CALC_CHAMP               :       0.06 :       0.01 :       0.07 :       0.06 *
 * IMPR_RESU                :       0.01 :       0.00 :       0.01 :       0.01 *
 * DETRUIRE                 :       0.01 :       0.00 :       0.01 :       0.01 *
 * ASSEMBLAGE               :       0.06 :       0.00 :       0.06 :       0.06 *
 * DYNA_VIBRA               :       0.03 :       0.00 :       0.03 :       0.03 *
 * CALC_CHAMP               :       0.05 :       0.00 :       0.05 :       0.06 *
 * IMPR_RESU                :       0.01 :       0.00 :       0.01 :       0.01 *
 * DETRUIRE                 :       0.01 :       0.00 :       0.01 :       0.01 *
 * ASSEMBLAGE               :       0.06 :       0.01 :       0.07 :       0.06 *
 * DYNA_VIBRA               :       0.03 :       0.00 :       0.03 :       0.03 *
 * CALC_CHAMP               :       0.05 :       0.00 :       0.05 :       0.06 *
 * IMPR_RESU                :       0.01 :       0.00 :       0.01 :       0.01 *
 * DETRUIRE                 :       0.01 :       0.00 :       0.01 :       0.01 *
 * ASSEMBLAGE               :       0.06 :       0.01 :       0.07 :       0.06 *
 * DYNA_VIBRA               :       0.03 :       0.00 :       0.03 :       0.03 *
 * CALC_CHAMP               :       0.05 :       0.00 :       0.05 :       0.06 *
 * IMPR_RESU                :       0.01 :       0.00 :       0.01 :       0.01 *
 * DETRUIRE                 :       0.02 :       0.00 :       0.02 :       0.01 *
 * ASSEMBLAGE               :       0.06 :       0.00 :       0.06 :       0.06 *
 * DYNA_VIBRA               :       0.02 :       0.00 :       0.02 :       0.03 *
 * CALC_CHAMP               :       0.06 :       0.01 :       0.07 :       0.06 *
 * IMPR_RESU                :       0.00 :       0.00 :       0.00 :       0.01 *
 * DETRUIRE                 :       0.02 :       0.00 :       0.02 :       0.01 *
 * ASSEMBLAGE               :       0.05 :       0.00 :       0.05 :       0.06 *
 * DYNA_VIBRA               :       0.03 :       0.00 :       0.03 :       0.03 *
 * CALC_CHAMP               :       0.06 :       0.00 :       0.06 :       0.06 *
 * IMPR_RESU                :       0.01 :       0.00 :       0.01 :       0.01 *
 * DETRUIRE                 :       0.01 :       0.00 :       0.01 :       0.01 *
 * ASSEMBLAGE               :       0.06 :       0.00 :       0.06 :       0.06 *
 * DYNA_VIBRA               :       0.02 :       0.00 :       0.02 :       0.02 *
 * CALC_CHAMP               :       0.06 :       0.00 :       0.06 :       0.06 *
 * IMPR_RESU                :       0.01 :       0.00 :       0.01 :       0.01 *
 * DETRUIRE                 :       0.01 :       0.00 :       0.01 :       0.01 *
 * ASSEMBLAGE               :       0.05 :       0.00 :       0.05 :       0.06 *
 * DYNA_VIBRA               :       0.02 :       0.01 :       0.03 :       0.04 *
 * CALC_CHAMP               :       0.06 :       0.00 :       0.06 :       0.06 *
 * IMPR_RESU                :       0.00 :       0.00 :       0.00 :       0.00 *
 * DETRUIRE                 :       0.01 :       0.00 :       0.01 :       0.02 *
 * ASSEMBLAGE               :       0.06 :       0.01 :       0.07 :       0.06 *
 * DYNA_VIBRA               :       0.03 :       0.00 :       0.03 :       0.02 *
 * CALC_CHAMP               :       0.06 :       0.00 :       0.06 :       0.06 *
 * IMPR_RESU                :       0.00 :       0.00 :       0.00 :       0.01 *
 * DETRUIRE                 :       0.02 :       0.00 :       0.02 :       0.01 *
 * ASSEMBLAGE               :       0.06 :       0.00 :       0.06 :       0.06 *
 * DYNA_VIBRA               :       0.03 :       0.00 :       0.03 :       0.04 *
 * CALC_CHAMP               :       0.05 :       0.01 :       0.06 :       0.06 *
 * IMPR_RESU                :       0.01 :       0.00 :       0.01 :       0.00 *
 * DETRUIRE                 :       0.01 :       0.00 :       0.01 :       0.02 *
 * ASSEMBLAGE               :       0.06 :       0.00 :       0.06 :       0.06 *
 * DYNA_VIBRA               :       0.03 :       0.00 :       0.03 :       0.02 *
 * CALC_CHAMP               :       0.06 :       0.00 :       0.06 :       0.06 *
 * IMPR_RESU                :       0.00 :       0.00 :       0.00 :       0.01 *
 * DETRUIRE                 :       0.02 :       0.00 :       0.02 :       0.02 *
 * ASSEMBLAGE               :       0.06 :       0.00 :       0.06 :       0.06 *
 * DYNA_VIBRA               :       0.03 :       0.00 :       0.03 :       0.03 *
 * CALC_CHAMP               :       0.05 :       0.00 :       0.05 :       0.06 *
 * IMPR_RESU                :       0.01 :       0.00 :       0.01 :       0.00 *
 * DETRUIRE                 :       0.01 :       0.00 :       0.01 :       0.02 *
 * ASSEMBLAGE               :       0.06 :       0.01 :       0.07 :       0.06 *
 * DYNA_VIBRA               :       0.03 :       0.00 :       0.03 :       0.03 *
 * CALC_CHAMP               :       0.06 :       0.00 :       0.06 :       0.06 *
 * IMPR_RESU                :       0.00 :       0.00 :       0.00 :       0.00 *
 * DETRUIRE                 :       0.02 :       0.00 :       0.02 :       0.01 *
 * ASSEMBLAGE               :       0.06 :       0.00 :       0.06 :       0.06 *
 * DYNA_VIBRA               :       0.03 :       0.00 :       0.03 :       0.03 *
 * CALC_CHAMP               :       0.06 :       0.00 :       0.06 :       0.06 *
 * IMPR_RESU                :       0.00 :       0.00 :       0.00 :       0.00 *
 * DETRUIRE                 :       0.02 :       0.00 :       0.02 :       0.02 *
 * ASSEMBLAGE               :       0.06 :       0.00 :       0.06 :       0.06 *
 * DYNA_VIBRA               :       0.02 :       0.01 :       0.03 :       0.03 *
 * CALC_CHAMP               :       0.05 :       0.01 :       0.06 :       0.06 *
 * IMPR_RESU                :       0.01 :       0.00 :       0.01 :       0.01 *
 * DETRUIRE                 :       0.01 :       0.00 :       0.01 :       0.01 *
 * ASSEMBLAGE               :       0.06 :       0.00 :       0.06 :       0.06 *
 * DYNA_VIBRA               :       0.03 :       0.00 :       0.03 :       0.03 *
 * CALC_CHAMP               :       0.06 :       0.00 :       0.06 :       0.06 *
 * IMPR_RESU                :       0.01 :       0.00 :       0.01 :       0.01 *
 * DETRUIRE                 :       0.01 :       0.00 :       0.01 :       0.01 *
 * ASSEMBLAGE               :       0.06 :       0.00 :       0.06 :       0.06 *
 * DYNA_VIBRA               :       0.03 :       0.00 :       0.03 :       0.03 *
 * CALC_CHAMP               :       0.06 :       0.01 :       0.07 :       0.06 *
 * IMPR_RESU                :       0.00 :       0.00 :       0.00 :       0.01 *
 * DETRUIRE                 :       0.02 :       0.00 :       0.02 :       0.01 *
 * ASSEMBLAGE               :       0.06 :       0.00 :       0.06 :       0.07 *
 * DYNA_VIBRA               :       0.03 :       0.00 :       0.03 :       0.02 *
 * CALC_CHAMP               :       0.05 :       0.00 :       0.05 :       0.06 *
 * IMPR_RESU                :       0.01 :       0.00 :       0.01 :       0.01 *
 * DETRUIRE                 :       0.01 :       0.00 :       0.01 :       0.01 *
 * ASSEMBLAGE               :       0.06 :       0.00 :       0.06 :       0.06 *
 * DYNA_VIBRA               :       0.03 :       0.01 :       0.04 :       0.04 *
 * CALC_CHAMP               :       0.05 :       0.01 :       0.06 :       0.06 *
 * IMPR_RESU                :       0.00 :       0.00 :       0.00 :       0.00 *
 * DETRUIRE                 :       0.02 :       0.00 :       0.02 :       0.02 *
 * ASSEMBLAGE               :       0.06 :       0.00 :       0.06 :       0.06 *
 * DYNA_VIBRA               :       0.03 :       0.00 :       0.03 :       0.03 *
 * CALC_CHAMP               :       0.05 :       0.01 :       0.06 :       0.06 *
 * IMPR_RESU                :       0.00 :       0.00 :       0.00 :       0.00 *
 * DETRUIRE                 :       0.02 :       0.00 :       0.02 :       0.02 *
 * ASSEMBLAGE               :       0.06 :       0.00 :       0.06 :       0.06 *
 * DYNA_VIBRA               :       0.03 :       0.00 :       0.03 :       0.03 *
 * CALC_CHAMP               :       0.06 :       0.00 :       0.06 :       0.06 *
 * IMPR_RESU                :       0.00 :       0.00 :       0.00 :       0.01 *
 * DETRUIRE                 :       0.02 :       0.00 :       0.02 :       0.01 *
 * ASSEMBLAGE               :       0.06 :       0.00 :       0.06 :       0.06 *
 * DYNA_VIBRA               :       0.03 :       0.01 :       0.04 :       0.04 *
 * CALC_CHAMP               :       0.05 :       0.00 :       0.05 :       0.06 *
 * IMPR_RESU                :       0.00 :       0.00 :       0.00 :       0.00 *
 * DETRUIRE                 :       0.02 :       0.01 :       0.03 :       0.02 *
 * ASSEMBLAGE               :       0.06 :       0.00 :       0.06 :       0.06 *
 * DYNA_VIBRA               :       0.03 :       0.00 :       0.03 :       0.03 *
 * CALC_CHAMP               :       0.05 :       0.00 :       0.05 :       0.06 *
 * IMPR_RESU                :       0.01 :       0.00 :       0.01 :       0.01 *
 * DETRUIRE                 :       0.02 :       0.00 :       0.02 :       0.01 *
 * ASSEMBLAGE               :       0.06 :       0.00 :       0.06 :       0.06 *
 * DYNA_VIBRA               :       0.02 :       0.01 :       0.03 :       0.03 *
 * CALC_CHAMP               :       0.05 :       0.01 :       0.06 :       0.06 *
 * IMPR_RESU                :       0.01 :       0.00 :       0.01 :       0.01 *
 * DETRUIRE                 :       0.01 :       0.00 :       0.01 :       0.01 *
 * ASSEMBLAGE               :       0.06 :       0.00 :       0.06 :       0.06 *
 * DYNA_VIBRA               :       0.03 :       0.00 :       0.03 :       0.03 *
 * CALC_CHAMP               :       0.06 :       0.01 :       0.07 :       0.06 *
 * IMPR_RESU                :       0.00 :       0.00 :       0.00 :       0.00 *
 * DETRUIRE                 :       0.02 :       0.00 :       0.02 :       0.02 *
 * ASSEMBLAGE               :       0.06 :       0.00 :       0.06 :       0.06 *
 * DYNA_VIBRA               :       0.03 :       0.00 :       0.03 :       0.03 *
 * CALC_CHAMP               :       0.06 :       0.00 :       0.06 :       0.06 *
 * IMPR_RESU                :       0.00 :       0.00 :       0.00 :       0.00 *
 * DETRUIRE                 :       0.02 :       0.00 :       0.02 :       0.02 *
 * ASSEMBLAGE               :       0.06 :       0.00 :       0.06 :       0.06 *
 * DYNA_VIBRA               :       0.03 :       0.00 :       0.03 :       0.03 *
 * CALC_CHAMP               :       0.06 :       0.00 :       0.06 :       0.06 *
 * IMPR_RESU                :       0.00 :       0.00 :       0.00 :       0.00 *
 * DETRUIRE                 :       0.02 :       0.00 :       0.02 :       0.02 *
 * ASSEMBLAGE               :       0.06 :       0.00 :       0.06 :       0.06 *
 * DYNA_VIBRA               :       0.03 :       0.00 :       0.03 :       0.03 *
 * CALC_CHAMP               :       0.05 :       0.00 :       0.05 :       0.06 *
 * IMPR_RESU                :       0.01 :       0.00 :       0.01 :       0.01 *
 * DETRUIRE                 :       0.01 :       0.00 :       0.01 :       0.01 *
 * ASSEMBLAGE               :       0.07 :       0.00 :       0.07 :       0.07 *
 * DYNA_VIBRA               :       0.03 :       0.00 :       0.03 :       0.02 *
 * CALC_CHAMP               :       0.05 :       0.01 :       0.06 :       0.07 *
 * IMPR_RESU                :       0.01 :       0.00 :       0.01 :       0.00 *
 * DETRUIRE                 :       0.01 :       0.00 :       0.01 :       0.02 *
 * ASSEMBLAGE               :       0.06 :       0.00 :       0.06 :       0.06 *
 * DYNA_VIBRA               :       0.02 :       0.00 :       0.02 :       0.03 *
 * CALC_CHAMP               :       0.06 :       0.01 :       0.07 :       0.06 *
 * IMPR_RESU                :       0.00 :       0.00 :       0.00 :       0.00 *
 * DETRUIRE                 :       0.01 :       0.00 :       0.01 :       0.02 *
 * ASSEMBLAGE               :       0.07 :       0.00 :       0.07 :       0.06 *
 * DYNA_VIBRA               :       0.03 :       0.00 :       0.03 :       0.03 *
 * CALC_CHAMP               :       0.05 :       0.00 :       0.05 :       0.06 *
 * IMPR_RESU                :       0.01 :       0.00 :       0.01 :       0.01 *
 * DETRUIRE                 :       0.01 :       0.00 :       0.01 :       0.01 *
 * ASSEMBLAGE               :       0.06 :       0.00 :       0.06 :       0.06 *
 * DYNA_VIBRA               :       0.03 :       0.01 :       0.04 :       0.02 *
 * CALC_CHAMP               :       0.05 :       0.01 :       0.06 :       0.06 *
 * IMPR_RESU                :       0.01 :       0.00 :       0.01 :       0.01 *
 * DETRUIRE                 :       0.01 :       0.00 :       0.01 :       0.01 *
 * ASSEMBLAGE               :       0.07 :       0.00 :       0.07 :       0.07 *
 * DYNA_VIBRA               :       0.03 :       0.00 :       0.03 :       0.03 *
 * CALC_CHAMP               :       0.05 :       0.00 :       0.05 :       0.06 *
 * IMPR_RESU                :       0.00 :       0.00 :       0.00 :       0.00 *
 * DETRUIRE                 :       0.02 :       0.00 :       0.02 :       0.02 *
 * ASSEMBLAGE               :       0.06 :       0.01 :       0.07 :       0.06 *
 * DYNA_VIBRA               :       0.03 :       0.00 :       0.03 :       0.03 *
 * CALC_CHAMP               :       0.05 :       0.00 :       0.05 :       0.06 *
 * IMPR_RESU                :       0.01 :       0.00 :       0.01 :       0.01 *
 * DETRUIRE                 :       0.01 :       0.00 :       0.01 :       0.01 *
 * ASSEMBLAGE               :       0.06 :       0.00 :       0.06 :       0.06 *
 * DYNA_VIBRA               :       0.02 :       0.01 :       0.03 :       0.02 *
 * CALC_CHAMP               :       0.06 :       0.00 :       0.06 :       0.06 *
 * IMPR_RESU                :       0.00 :       0.00 :       0.00 :       0.01 *
 * DETRUIRE                 :       0.02 :       0.00 :       0.02 :       0.01 *
 * ASSEMBLAGE               :       0.06 :       0.00 :       0.06 :       0.07 *
 * DYNA_VIBRA               :       0.03 :       0.00 :       0.03 :       0.03 *
 * CALC_CHAMP               :       0.06 :       0.00 :       0.06 :       0.06 *
 * IMPR_RESU                :       0.01 :       0.00 :       0.01 :       0.00 *
 * DETRUIRE                 :       0.01 :       0.00 :       0.01 :       0.02 *
 * ASSEMBLAGE               :       0.06 :       0.00 :       0.06 :       0.06 *
 * DYNA_VIBRA               :       0.03 :       0.00 :       0.03 :       0.03 *
 * CALC_CHAMP               :       0.06 :       0.01 :       0.07 :       0.06 *
 * IMPR_RESU                :       0.00 :       0.00 :       0.00 :       0.01 *
 * DETRUIRE                 :       0.01 :       0.00 :       0.01 :       0.01 *
 * ASSEMBLAGE               :       0.06 :       0.00 :       0.06 :       0.06 *
 * DYNA_VIBRA               :       0.03 :       0.01 :       0.04 :       0.02 *
 * CALC_CHAMP               :       0.05 :       0.00 :       0.05 :       0.06 *
 * IMPR_RESU                :       0.01 :       0.00 :       0.01 :       0.01 *
 * DETRUIRE                 :       0.01 :       0.00 :       0.01 :       0.01 *
 * ASSEMBLAGE               :       0.07 :       0.00 :       0.07 :       0.07 *
 * DYNA_VIBRA               :       0.03 :       0.00 :       0.03 :       0.03 *
 * CALC_CHAMP               :       0.05 :       0.01 :       0.06 :       0.06 *
 * IMPR_RESU                :       0.01 :       0.00 :       0.01 :       0.00 *
 * DETRUIRE                 :       0.01 :       0.00 :       0.01 :       0.02 *
 * ASSEMBLAGE               :       0.06 :       0.00 :       0.06 :       0.06 *
 * DYNA_VIBRA               :       0.02 :       0.00 :       0.02 :       0.03 *
 *  . part Superviseur      :       5.03 :       0.11 :       5.14 :       5.25 *
 *  . part Fortran          :      13.45 :       0.78 :      14.23 :      14.13 *
 * > 500 commandes...       :      26.87 :       1.44 :      28.31 :      30.82 *
 ********************************************************************************
 * TOTAL_JOB                :      45.35 :       2.33 :      47.68 :      50.22 *
 ********************************************************************************

