                                                                                
                                                                                
        -- CODE_ASTER -- VERSION : DÉVELOPPEMENT STABILISÉE (testing) --        
                                                                                
                          Version 11.3.0 du 12/12/2012                          
                         Copyright EDF R&D 1991 - 2016                          
                                                                                
                    Exécution du : Mon Jun 27 15:24:58 2016                     
                   Nom de la machine : liding-Precision-T3600                   
                              Architecture : 64bit                              
                          Type de processeur : x86_64                           
                Système d'exploitation : Linux 3.13.0-85-generic                
                        Langue des messages : en (UTF-8)                        
                                                                                
   
   !------------------------------------------------------------------------------------!
   ! <A> <SUPERVIS2_2>                                                                  !
   !                                                                                    !
   !     Vous utilisez une vieille version de Code_Aster.                               !
   !                                                                                    !
   !     En mettant à jour votre version, vous bénéficierez des dernières améliorations !
   !     apportées au code depuis 15 mois.                                              !
   !     Si vous avez des développements privés, vous risquez d'avoir un travail        !
   !     important de portage si vous ne suivez pas les mises à jour.                   !
   !                                                                                    !
   !                                                                                    !
   ! Ceci est une alarme. Si vous ne comprenez pas le sens de cette                     !
   ! alarme, vous pouvez obtenir des résultats inattendus !                             !
   !------------------------------------------------------------------------------------!
   
                           Parallélisme MPI : inactif                           
                          Parallélisme OpenMP : actif                           
                        Nombre de processus utilisés : 1                        
                      Version de la librairie HDF5 : 1.8.8                      
                      Version de la librairie MED : 3.0.6                       
                          Librairie MUMPS : installée                           
                    Version de la librairie SCOTCH : 5.1.10                     
                 Mémoire limite pour l'exécution : 20000.00 Mo                  
                   consommée par l'initialisation : 208.10 Mo                   
                 par les objets du jeu de commandes : 11.87 Mo                  
                reste pour l'allocation dynamique : 19780.04 Mo                 
                Taille limite des fichiers d'échange : 97.66 Go                 
                                                                                
   
   !-------------------------------------------------------------------------------------!
   ! <A> <CALCULEL2_63>                                                                  !
   !                                                                                     !
   !   -> La maille M25 porte un élément fini de bord, mais elle ne borde                !
   !      aucun élément ayant une "rigidité".                                            !
   !                                                                                     !
   !   -> Risque & Conseil :                                                             !
   !      Cela peut entraîner des problèmes de "pivot nul" lors de la résolution.        !
   !      Si la résolution des systèmes linéaires ne pose pas de problèmes, vous         !
   !      pouvez ignorer ce message.                                                     !
   !      Sinon, vérifier la définition du modèle (AFFE_MODELE) en évitant l'utilisation !
   !      de l'opérande TOUT='OUI'.                                                      !
   !                                                                                     !
   !                                                                                     !
   ! Ceci est une alarme. Si vous ne comprenez pas le sens de cette                      !
   ! alarme, vous pouvez obtenir des résultats inattendus !                              !
   !-------------------------------------------------------------------------------------!
   
   
   !-------------------------------------------------------------------------------------!
   ! <A> <CALCULEL2_63>                                                                  !
   !                                                                                     !
   !   -> La maille M26 porte un élément fini de bord, mais elle ne borde                !
   !      aucun élément ayant une "rigidité".                                            !
   !                                                                                     !
   !   -> Risque & Conseil :                                                             !
   !      Cela peut entraîner des problèmes de "pivot nul" lors de la résolution.        !
   !      Si la résolution des systèmes linéaires ne pose pas de problèmes, vous         !
   !      pouvez ignorer ce message.                                                     !
   !      Sinon, vérifier la définition du modèle (AFFE_MODELE) en évitant l'utilisation !
   !      de l'opérande TOUT='OUI'.                                                      !
   !                                                                                     !
   !                                                                                     !
   ! Ceci est une alarme. Si vous ne comprenez pas le sens de cette                      !
   ! alarme, vous pouvez obtenir des résultats inattendus !                              !
   !-------------------------------------------------------------------------------------!
   
   
   !-------------------------------------------------------------------------------------!
   ! <A> <CALCULEL2_63>                                                                  !
   !                                                                                     !
   !   -> La maille M27 porte un élément fini de bord, mais elle ne borde                !
   !      aucun élément ayant une "rigidité".                                            !
   !                                                                                     !
   !   -> Risque & Conseil :                                                             !
   !      Cela peut entraîner des problèmes de "pivot nul" lors de la résolution.        !
   !      Si la résolution des systèmes linéaires ne pose pas de problèmes, vous         !
   !      pouvez ignorer ce message.                                                     !
   !      Sinon, vérifier la définition du modèle (AFFE_MODELE) en évitant l'utilisation !
   !      de l'opérande TOUT='OUI'.                                                      !
   !                                                                                     !
   !                                                                                     !
   ! Ceci est une alarme. Si vous ne comprenez pas le sens de cette                      !
   ! alarme, vous pouvez obtenir des résultats inattendus !                              !
   !-------------------------------------------------------------------------------------!
   
   
   !-------------------------------------------------------------------------------------!
   ! <A> <CALCULEL2_63>                                                                  !
   !                                                                                     !
   !   -> La maille M28 porte un élément fini de bord, mais elle ne borde                !
   !      aucun élément ayant une "rigidité".                                            !
   !                                                                                     !
   !   -> Risque & Conseil :                                                             !
   !      Cela peut entraîner des problèmes de "pivot nul" lors de la résolution.        !
   !      Si la résolution des systèmes linéaires ne pose pas de problèmes, vous         !
   !      pouvez ignorer ce message.                                                     !
   !      Sinon, vérifier la définition du modèle (AFFE_MODELE) en évitant l'utilisation !
   !      de l'opérande TOUT='OUI'.                                                      !
   !                                                                                     !
   !                                                                                     !
   ! Ceci est une alarme. Si vous ne comprenez pas le sens de cette                      !
   ! alarme, vous pouvez obtenir des résultats inattendus !                              !
   !-------------------------------------------------------------------------------------!
   
   
   !-------------------------------------------------------------------------------------!
   ! <A> <CALCULEL2_63>                                                                  !
   !                                                                                     !
   !   -> La maille M29 porte un élément fini de bord, mais elle ne borde                !
   !      aucun élément ayant une "rigidité".                                            !
   !                                                                                     !
   !   -> Risque & Conseil :                                                             !
   !      Cela peut entraîner des problèmes de "pivot nul" lors de la résolution.        !
   !      Si la résolution des systèmes linéaires ne pose pas de problèmes, vous         !
   !      pouvez ignorer ce message.                                                     !
   !      Sinon, vérifier la définition du modèle (AFFE_MODELE) en évitant l'utilisation !
   !      de l'opérande TOUT='OUI'.                                                      !
   !                                                                                     !
   !                                                                                     !
   ! Ceci est une alarme. Si vous ne comprenez pas le sens de cette                      !
   ! alarme, vous pouvez obtenir des résultats inattendus !                              !
   !-------------------------------------------------------------------------------------!
   
   
   !--------------------------------------------------------------------------------!
   ! <A> <CATAMESS_41>                                                              !
   !                                                                                !
   ! Le message d'alarme 'CALCULEL2_63' a été émis 5 fois, il ne sera plus affiché. !
   !                                                                                !
   !                                                                                !
   ! Ceci est une alarme. Si vous ne comprenez pas le sens de cette                 !
   ! alarme, vous pouvez obtenir des résultats inattendus !                         !
   !--------------------------------------------------------------------------------!
   
   
   !--------------------------------------------------------------------------------------------------!
   ! <A> <CALCULEL2_64>                                                                               !
   !                                                                                                  !
   !   -> Le modèle GUIDE n'a pas d'éléments sachant calculer la rigidité.                            !
   !                                                                                                  !
   !   -> Risque & Conseil :                                                                          !
   !      Ce modèle ne pourra donc pas (en général) être utilisé pour faire des calculs.              !
   !      Vérifier la définition du modèle (AFFE_MODELE) et assurez-vous que les                      !
   !      types de mailles du maillage (SEG2, TRIA3, QUAD4, ...) sont compatibles avec votre          !
   !      modélisation.                                                                               !
   !      Exemples d'erreur :                                                                         !
   !        * affecter une modélisation "3D" sur un maillage formé de facettes.                       !
   !        * affecter une modélisation qui ne sait pas traiter tous les types de mailles du maillage !
   !          (par exemple 'PLAN_DIAG' en thermique, 'AXIS_SI' en mécanique)                          !
   !                                                                                                  !
   !                                                                                                  !
   ! Ceci est une alarme. Si vous ne comprenez pas le sens de cette                                   !
   ! alarme, vous pouvez obtenir des résultats inattendus !                                           !
   !--------------------------------------------------------------------------------------------------!
   
   
   !------------------------------------------------------------!
   ! <EXCEPTION> <CALCULEL_34>                                  !
   !                                                            !
   !  le calcul de l'option :  RIGI_ACOU                        !
   !  n'est possible pour aucun des types d'éléments du LIGREL. !
   !------------------------------------------------------------!
   
 <I> <FIN> FERMETURE DE LA BASE "GLOBALE" EFFECTUEE.

 <FIN> Arrêt normal dans "FIN".
 <I> <FIN> ARRET NORMAL DANS "FIN" PAR APPEL A "JEFINI".
  
 <I> <FIN> MEMOIRE JEVEUX MINIMALE REQUISE POUR L'EXECUTION :                      24.94 Mo
 <I> <FIN> MEMOIRE JEVEUX OPTIMALE REQUISE POUR L'EXECUTION :                      31.49 Mo
 <I> <FIN> MAXIMUM DE MEMOIRE UTILISEE PAR LE PROCESSUS LORS DE L'EXECUTION :     250.57 Mo

 ********************************************************************************
 * COMMAND                  :       USER :     SYSTEM :   USER+SYS :    ELAPSED *
 ********************************************************************************
 * init (jdc)               :       2.48 :       0.04 :       2.52 :       2.52 *
 *  . compile               :       0.00 :       0.00 :       0.00 :       0.01 *
 *  . exec_compile          :       1.30 :       0.01 :       1.31 :       1.30 *
 *  . report                :       0.82 :       0.00 :       0.82 :       0.82 *
 *  . build                 :       0.00 :       0.00 :       0.00 :       0.00 *
 * DEBUT                    :       0.00 :       0.04 :       0.04 :       0.04 *
 * LIRE_MAILLAGE            :       0.01 :       0.00 :       0.01 :       0.01 *
 * DEFI_MATERIAU            :       0.00 :       0.00 :       0.00 :       0.01 *
 * AFFE_MATERIAU            :       0.00 :       0.00 :       0.00 :       0.00 *
 * AFFE_MODELE              :       0.01 :       0.00 :       0.01 :       0.01 *
 * AFFE_CHAR_ACOU           :       0.00 :       0.00 :       0.00 :       0.00 *
 * ASSEMBLAGE               :       0.01 :       0.02 :       0.03 :       0.03 *
 * FIN                      :       0.01 :       0.02 :       0.03 :       0.02 *
 *  . part Superviseur      :       2.50 :       0.08 :       2.58 :       2.58 *
 *  . part Fortran          :       0.03 :       0.02 :       0.05 :       0.05 *
 ********************************************************************************
 * TOTAL_JOB                :       2.53 :       0.11 :       2.64 :       2.64 *
 ********************************************************************************

