                                                                                
                                                                                
        -- CODE_ASTER -- VERSION : DÉVELOPPEMENT STABILISÉE (testing) --        
                                                                                
                          Version 11.3.0 du 12/12/2012                          
                         Copyright EDF R&D 1991 - 2016                          
                                                                                
                    Exécution du : Fri Jun 24 16:23:24 2016                     
                   Nom de la machine : liding-Precision-T3600                   
                              Architecture : 64bit                              
                          Type de processeur : x86_64                           
                Système d'exploitation : Linux 3.13.0-85-generic                
                        Langue des messages : en (UTF-8)                        
                                                                                
   
   !------------------------------------------------------------------------------------!
   ! <A> <SUPERVIS2_2>                                                                  !
   !                                                                                    !
   !     Vous utilisez une vieille version de Code_Aster.                               !
   !                                                                                    !
   !     En mettant à jour votre version, vous bénéficierez des dernières améliorations !
   !     apportées au code depuis 15 mois.                                              !
   !     Si vous avez des développements privés, vous risquez d'avoir un travail        !
   !     important de portage si vous ne suivez pas les mises à jour.                   !
   !                                                                                    !
   !                                                                                    !
   ! Ceci est une alarme. Si vous ne comprenez pas le sens de cette                     !
   ! alarme, vous pouvez obtenir des résultats inattendus !                             !
   !------------------------------------------------------------------------------------!
   
                           Parallélisme MPI : inactif                           
                          Parallélisme OpenMP : actif                           
                        Nombre de processus utilisés : 1                        
                      Version de la librairie HDF5 : 1.8.8                      
                      Version de la librairie MED : 3.0.6                       
                          Librairie MUMPS : installée                           
                    Version de la librairie SCOTCH : 5.1.10                     
                 Mémoire limite pour l'exécution : 20000.00 Mo                  
                   consommée par l'initialisation : 210.67 Mo                   
                 par les objets du jeu de commandes : 11.87 Mo                  
                reste pour l'allocation dynamique : 19777.46 Mo                 
                Taille limite des fichiers d'échange : 97.66 Go                 
                                                                                
   
   !----------------------------------------------------------------------------------------------------------------!
   ! <EXCEPTION> <MATRICE0_12>                                                                                      !
   !                                                                                                                !
   !  Une des charges renseignées pour l'assemblage des vecteurs est déjà présente dans le mot-clé                  !
   !  CHARGE définissant les conditions de Dirichlet. Il est interdit de renseigner plus d'une fois la même charge. !
   !----------------------------------------------------------------------------------------------------------------!
   

 --------------------------------------------------------------------------------
 ASTER 11.03.00 CONCEPT Pr_0 CALCULE LE 24/06/2016 A 16:23:24 DE TYPE ACOU_HARMO 

                    ENTITES TOPOLOGIQUES SELECTIONNEES 
 GROUP_MA : ENTREE SORTIE                                                        


 ======>

 ------>
 CHAMP AUX NOEUDS DE NOM SYMBOLIQUE  INTE_NOEU                                   
 NUMERO D'ORDRE: 1 FREQ:   2.00000000000000E+01                                  
 NOEUD        INTX_R       INTX_I       INTY_R       INTY_I       INTZ_R       INTZ_I  
 N1        8.24696683696225E-29 -1.61601720835542E-02 -1.57772181044202E-29  3.06163470988423E+02 -1.03770646147540E-28 -2.12154266476238E-02
 N2        2.07830952158715E-29  1.82681750460195E-02 -3.15544362088405E-29  3.06150412188811E+02  5.21112346562465E-29 -2.26940791933787E-02
 N3        1.48000782878359E-28  5.90106716996581E-02 -2.30156332074052E-29  2.99655287520566E-01 -7.06003547153584E-29 -7.40458815985559E-02
 N4        2.06924994712876E-28 -5.55655469743310E-02 -8.50429033683183E-29  3.18983109276772E-01 -9.71053877960044E-30 -5.51943581437516E-02
 N18       1.85313653324420E-28  3.91877441035529E-02  1.09506835893903E-28  3.37713180871683E-01  7.39998858825692E-29  3.34226818938330E-02
 N19       2.75840545912884E-28 -4.61874248455135E-02 -8.51507554452040E-29  2.74765183113445E-01 -7.42638586555718E-31  4.76044207229354E-02
 N28       6.73241552869613E-29 -1.74840806751742E-02  7.88860905221012E-29  3.06159051022157E+02  6.32702653470206E-29  2.26725057947213E-02
 N29      -7.51536382898787E-30  8.28093836908197E-03  4.02319061662716E-29  3.06150861174124E+02 -2.61384443527941E-29  3.36345228754935E-02
 N41       2.34314896306470E-29 -2.25862888186938E-02  6.38977333229020E-29  3.06164880421345E+02 -9.75436813030984E-29 -2.69171880592355E-02
 N42      -2.49105556796878E-29  6.71683866796056E-04  2.99767143983984E-29  3.06130286587891E+02 -4.81379769833108E-30 -2.67488622771642E-02
 N43       4.93358733098873E-29  2.89010946207800E-02  2.20881053461883E-29  3.06147898940003E+02 -2.15302838119209E-29 -1.12570343537685E-02
 N44       9.05799519584316E-29  2.84782796964962E-02  7.80972296168802E-29  3.06157986306299E+02 -1.01872323205199E-28  4.39498651934379E-03
 N45       4.18414960987622E-29 -9.64899037525012E-03  7.41529250907751E-29  3.06155877777303E+02  8.02704971143753E-29  2.79713537654243E-02
 N46      -5.67285674384798E-29 -6.36552669118017E-03  6.15311506072389E-29  3.06158636387757E+02  6.33568358980208E-29  3.85803025977871E-02
 N47       6.40982639000400E-29 -2.17571529156044E-02 -1.57772181044202E-29  3.06130521785352E+02 -8.51966957526989E-29 -6.32655713506988E-03
 N48       6.26652344549913E-29 -2.26523728321557E-02  5.52202633654708E-30  3.06133332394144E+02 -3.82301908785727E-30  4.15831567489340E-03
 N64       1.12859446592843E-28  2.19809545852936E-04  1.09122163486344E-28  3.17308989053935E-01 -2.23495503361389E-29  5.46884696415037E-03
 N65      -1.23900321481529E-28  1.89856104800361E-02  3.51147873412325E-28  2.93226200023362E-01  2.06163963495351E-28 -2.90389429174085E-02
 N110     -8.10346579680596E-29  4.83861118404039E-02 -5.82801808611133E-29  3.06942742933407E-01  3.01990951093104E-29 -3.93479747259699E-02
 N111      3.80897905856269E-29  7.01465093676441E-02  5.86360927148360E-29  2.98345770517867E-01  1.53830642033127E-28  1.63189453884239E-03
 N121      3.75136486427635E-29 -3.44686277929270E-02 -1.11421980630601E-28  2.67292035639894E-01  1.58926776045863E-28  5.88452397428140E-02
 N122      2.44524250941667E-29 -1.12823280552094E-02 -5.56663087405909E-29  2.53037708003922E-01  1.42972372386559E-28  7.87568148256940E-02
 N123      1.04295544597240E-28 -1.40587283368640E-02  3.35362731481848E-29  3.30376290951072E-01  3.51831152086666E-29 -9.51043771048272E-03
 N124      1.06421014640508E-28 -5.64330349869294E-02  1.05070263674012E-28  2.95557704653780E-01  6.57908261617374E-29  3.89430378341166E-02
 N248     -1.53269453130722E-29 -2.00385749545174E-02  2.93456256742216E-29  3.06115361585116E+02 -1.03075526271243E-28 -1.06008519795345E-03
 N249     -9.78504263875678E-30  5.70268375013493E-04  4.39334842600010E-29  3.06105313092514E+02 -8.04836308924132E-29 -3.05926773639498E-03
 N250      1.97469466253715E-30 -5.53947666731474E-03  2.61451042873250E-29  3.06128572891781E+02 -5.10921314055445E-29  1.09301153361173E-02
 N251      2.74920982574458E-30 -1.05386234798857E-02 -8.41451632235746E-30  3.06115762058850E+02 -3.03088801377600E-29  3.72340961453945E-03
 N302     -4.64289890039196E-29 -7.89173238606085E-03  2.27796297520200E-28  2.88103388556796E-01 -3.62840386697694E-30 -9.73229903402704E-03
 N303     -7.09627826320597E-29  1.54014508118018E-02  1.16448914576111E-28  3.11543230184985E-01  6.50030034531270E-29 -2.77531559697381E-02
 N304      4.62875772215948E-29 -2.27013587603984E-04  1.76020559860266E-28  3.54181995457984E-01  7.56576722119181E-29  7.16120196704850E-03
 N305     -5.83959498857346E-30 -1.20341063772550E-02  8.91604315362785E-29  3.50623865736459E-01  4.12205788640622E-29  1.53105226925007E-02
 

 ------>
 CHAMP AUX NOEUDS DE NOM SYMBOLIQUE  PRAC_NOEU                                   
 NUMERO D'ORDRE: 1 FREQ:   2.00000000000000E+01                                  
 NOEUD        PRES_R       PRES_I  
 N1       -1.25024478375106E-14 -2.04180468135225E+02
 N2       -1.25024861756528E-14 -2.04181094244603E+02
 N3       -1.92018959747541E-14 -3.13590759198868E+02
 N4       -1.92019446286954E-14 -3.13591553778028E+02
 N18      -1.92019984848573E-14 -3.13592433315900E+02
 N19      -1.92019051666232E-14 -3.13590909313483E+02
 N28      -1.25024555308552E-14 -2.04180593777077E+02
 N29      -1.25024998016534E-14 -2.04181316774080E+02
 N41      -1.25024720219279E-14 -2.04180863096733E+02
 N42      -1.25025182480435E-14 -2.04181618026491E+02
 N43      -1.25025221417956E-14 -2.04181681616289E+02
 N44      -1.25024966036293E-14 -2.04181264546382E+02
 N45      -1.25024816965446E-14 -2.04181021095213E+02
 N46      -1.25024710347489E-14 -2.04180846974876E+02
 N47      -1.25024814603510E-14 -2.04181017237880E+02
 N48      -1.25024932314174E-14 -2.04181209473983E+02
 N64      -1.92019987795296E-14 -3.13592438128262E+02
 N65      -1.92019703359165E-14 -3.13591973608809E+02
 N110     -1.92019789189181E-14 -3.13592113779864E+02
 N111     -1.92019581379503E-14 -3.13591774400904E+02
 N121     -1.92019527667677E-14 -3.13591686682836E+02
 N122     -1.92019415049530E-14 -3.13591502763444E+02
 N123     -1.92020005685620E-14 -3.13592467345379E+02
 N124     -1.92019558463505E-14 -3.13591736976239E+02
 N248     -1.25025388221160E-14 -2.04181954026593E+02
 N249     -1.25025676071087E-14 -2.04182424121200E+02
 N250     -1.25025369359579E-14 -2.04181923223294E+02
 N251     -1.25025324027396E-14 -2.04181849190222E+02
 N302     -1.92019511915880E-14 -3.13591660958198E+02
 N303     -1.92020169700319E-14 -3.13592735201710E+02
 N304     -1.92020323843124E-14 -3.13592986936014E+02
 N305     -1.92020245218502E-14 -3.13592858532262E+02
 
   
   !----------------------------------------------------------------------------------------------------------------!
   ! <EXCEPTION> <MATRICE0_12>                                                                                      !
   !                                                                                                                !
   !  Une des charges renseignées pour l'assemblage des vecteurs est déjà présente dans le mot-clé                  !
   !  CHARGE définissant les conditions de Dirichlet. Il est interdit de renseigner plus d'une fois la même charge. !
   !----------------------------------------------------------------------------------------------------------------!
   

 --------------------------------------------------------------------------------
 ASTER 11.03.00 CONCEPT Pr_1 CALCULE LE 24/06/2016 A 16:23:24 DE TYPE ACOU_HARMO 

                    ENTITES TOPOLOGIQUES SELECTIONNEES 
 GROUP_MA : ENTREE SORTIE                                                        


 ======>

 ------>
 CHAMP AUX NOEUDS DE NOM SYMBOLIQUE  INTE_NOEU                                   
 NUMERO D'ORDRE: 1 FREQ:   3.20000000000000E+01                                  
 NOEUD        INTX_R       INTX_I       INTY_R       INTY_I       INTZ_R       INTZ_I  
 N1        7.63227981367433E-31 -4.55800693601679E-04 -4.73316543132607E-30  3.27193658199531E+01 -3.42234741852074E-31 -4.17331672011264E-04
 N2        3.59911167622903E-31  3.73982717549780E-04 -5.91645678915759E-30  3.27195836873429E+01  1.17973440596548E-30 -5.20309711776709E-04
 N3        1.17874616316276E-29  3.74441994855851E-02  1.54313210864083E-29  1.90141510759157E-01  2.30333517628936E-29 -4.69845549196510E-02
 N4       -5.37057120572047E-29 -3.52583052048901E-02  6.28084273463565E-29  2.02406934020010E-01  1.30873873068912E-28 -3.50230512128579E-02
 N18      -4.60803776283923E-29  2.48663047602956E-02 -6.04587928142041E-30  2.14292856007667E-01  8.06321867579313E-30  2.12080392591062E-02
 N19       2.42798136229010E-29 -2.93073986401112E-02 -5.79781950458333E-30  1.74348028805275E-01 -9.53940064474219E-29  3.02067505634537E-02
 N28      -4.32082383023276E-31 -4.45784223595829E-04 -5.12759588393658E-30  3.27192031716106E+01 -6.65854167085430E-31  5.49677431604793E-04
 N29      -1.07579738354487E-31  7.96019271617891E-05 -6.11367201546284E-30  3.27195448179527E+01 -3.43664331061770E-31  9.73364458929588E-04
 N41       9.68684081348787E-31 -6.38564061767618E-04 -6.50810246807335E-30  3.27196609936715E+01  5.97244417449403E-31 -5.95066863022743E-04
 N42       3.46486834057416E-32 -6.48819207705022E-05 -7.03400973822069E-30  3.27192849986677E+01  9.28006835981708E-31 -6.24441072429324E-04
 N43       5.42219244768768E-31  6.44071526533435E-04 -5.32481111024183E-30  3.27198002175757E+01  3.94498913401498E-31 -2.43870334752617E-04
 N44      -2.95837885785570E-31  6.09813776799847E-04 -5.62063394969971E-30  3.27198223065607E+01 -2.01853444894954E-31  1.52408149096610E-04
 N45      -1.87453168899640E-31 -2.89719780469311E-04 -5.32481111024183E-30  3.27193756982925E+01 -5.80359428515096E-31  7.02643958933775E-04
 N46      -1.39157466278592E-31 -2.25154092223435E-04 -5.81784917600496E-30  3.27193797240326E+01 -5.20596919561098E-31  9.94944381353206E-04
 N47       1.33215456526065E-30 -6.24636573541054E-04 -6.64897048686281E-30  3.27187763610439E+01  5.54087116339997E-31 -7.88259960001130E-05
 N48      -4.16429688326823E-31 -5.98873801845666E-04 -4.63455781817344E-30  3.27188985726494E+01  2.20170279988111E-31  1.14950683133605E-04
 N64      -4.95614799534560E-29  1.39409639209596E-04  1.71541296193275E-29  2.01345539616180E-01  5.43152287610628E-29  3.47055140482878E-03
 N65       5.06986613385357E-30  1.20470703483425E-02  4.39882399298045E-30  1.86063155082014E-01  1.45715859592338E-29 -1.84260972797176E-02
 N110      4.23929279592037E-29  3.07026496316569E-02  3.30689875171066E-29  1.94766924066682E-01  3.43758272808706E-29 -2.49678907341688E-02
 N111     -2.52302600504561E-29  4.45104576345094E-02  2.67041742368957E-29  1.89311786208881E-01  6.66104086588369E-30  1.03554346488056E-03
 N121      2.84192028153103E-29 -2.18714424112935E-02  3.41394193801970E-29  1.69606874453441E-01 -5.37087935451157E-29  3.73394325380807E-02
 N122      8.36532486169457E-30 -7.15898560965474E-03  8.57528011458194E-29  1.60562032322674E-01 -3.78416345122926E-29  4.99739653132996E-02
 N123     -2.18374868338537E-29 -8.92027616185678E-03  2.12842772139709E-29  2.09637146459205E-01  2.09793767100698E-29 -6.03501124407969E-03
 N124      1.47595567218060E-29 -3.58085889783290E-02 -1.73333694994851E-29  1.87542254633732E-01 -4.64874590333250E-29  2.47108671303452E-02
 N248      8.77691414640335E-32 -6.25491405804711E-04 -5.60091242706918E-30  3.27190683151812E+01  1.28319248496779E-31  1.50726482059877E-05
 N249      2.02351348132905E-31 -4.83177337843548E-05 -5.18827749203050E-30  3.27191151783486E+01  1.45322930531749E-31 -5.78987080541008E-05
 N250     -1.44411482697470E-31 -2.18655604829118E-04 -5.12759588393658E-30  3.27193890609749E+01  2.40843343129162E-33  3.70917003921369E-04
 N251     -2.53413416961945E-31 -3.77830604533538E-04 -4.86464224886291E-30  3.27188972447395E+01  2.99447781917171E-33  1.55196601700660E-04
 N302     -3.45007118007019E-29 -5.00767057463995E-03  1.42697927369483E-29  1.82812791853735E-01  4.70622708808206E-29 -6.17530552925515E-03
 N303      1.64586788241305E-29  9.77264893812642E-03  3.06864837805700E-29  1.97686964007643E-01  5.22378469960410E-29 -1.76103838575431E-02
 N304     -1.47326798428106E-29 -1.44021924687635E-04  1.34506947316005E-29  2.24743170807445E-01  2.14295268308577E-29  4.54395957734301E-03
 N305      1.12527220238276E-29 -7.63587399461998E-03  1.36080707213418E-29  2.22485055345016E-01  1.43936695827195E-30  9.71489764088968E-03
 

 ------>
 CHAMP AUX NOEUDS DE NOM SYMBOLIQUE  PRAC_NOEU                                   
 NUMERO D'ORDRE: 1 FREQ:   3.20000000000000E+01                                  
 NOEUD        PRES_R       PRES_I  
 N1       -1.33574910803573E-15 -2.18144383991488E+01
 N2       -1.33576821228594E-15 -2.18147503952316E+01
 N3       -1.20923931243951E-14 -1.97483766467430E+02
 N4       -1.20924715623783E-14 -1.97485047456908E+02
 N18      -1.20925583867079E-14 -1.97486465405817E+02
 N19      -1.20924079439126E-14 -1.97484008488518E+02
 N28      -1.33574902451860E-15 -2.18144370352105E+01
 N29      -1.33576919488249E-15 -2.18147664422511E+01
 N41      -1.33575932342147E-15 -2.18146052290583E+01
 N42      -1.33577804498990E-15 -2.18149109754734E+01
 N43      -1.33578056119214E-15 -2.18149520681745E+01
 N44      -1.33577058079483E-15 -2.18147890759172E+01
 N45      -1.33575901541626E-15 -2.18146001989515E+01
 N46      -1.33575729942995E-15 -2.18145721747684E+01
 N47      -1.33575901302744E-15 -2.18146001599392E+01
 N48      -1.33576271272823E-15 -2.18146605806384E+01
 N64      -1.20925588617486E-14 -1.97486473163820E+02
 N65      -1.20925130061872E-14 -1.97485724285672E+02
 N110     -1.20925268432527E-14 -1.97485950262100E+02
 N111     -1.20924933415875E-14 -1.97485403138387E+02
 N121     -1.20924846824128E-14 -1.97485261723332E+02
 N122     -1.20924665266581E-14 -1.97484965217356E+02
 N123     -1.20925617466576E-14 -1.97486520277960E+02
 N124     -1.20924896477598E-14 -1.97485342813603E+02
 N248     -1.33578358837545E-15 -2.18150015058297E+01
 N249     -1.33579588641140E-15 -2.18152023479985E+01
 N250     -1.33578299246532E-15 -2.18149917738788E+01
 N251     -1.33577835907243E-15 -2.18149161048305E+01
 N302     -1.20924821417887E-14 -1.97485220231792E+02
 N303     -1.20925881871642E-14 -1.97486952084201E+02
 N304     -1.20926130379847E-14 -1.97487357928899E+02
 N305     -1.20926003623992E-14 -1.97487150920879E+02
 
   
   !----------------------------------------------------------------------------------------------------------------!
   ! <EXCEPTION> <MATRICE0_12>                                                                                      !
   !                                                                                                                !
   !  Une des charges renseignées pour l'assemblage des vecteurs est déjà présente dans le mot-clé                  !
   !  CHARGE définissant les conditions de Dirichlet. Il est interdit de renseigner plus d'une fois la même charge. !
   !----------------------------------------------------------------------------------------------------------------!
   

 --------------------------------------------------------------------------------
 ASTER 11.03.00 CONCEPT Pr_2 CALCULE LE 24/06/2016 A 16:23:24 DE TYPE ACOU_HARMO 

                    ENTITES TOPOLOGIQUES SELECTIONNEES 
 GROUP_MA : ENTREE SORTIE                                                        


 ======>

 ------>
 CHAMP AUX NOEUDS DE NOM SYMBOLIQUE  INTE_NOEU                                   
 NUMERO D'ORDRE: 1 FREQ:   4.40000000000000E+01                                  
 NOEUD        INTX_R       INTX_I       INTY_R       INTY_I       INTZ_R       INTZ_I  
 N1       -8.36662486440703E-30 -6.34485088442159E-03  6.31088724176809E-30 -1.46398118375479E+02 -1.25320261481277E-30 -1.03285156520800E-02
 N2        5.34387781669126E-30  8.73197621205076E-03  7.88860905221012E-30 -1.46406668390934E+02  9.34692320610013E-30 -1.02329906210085E-02
 N3        1.46884899068581E-29  2.78420382759158E-02  1.70028799210283E-29  1.41382247630440E-01 -7.48454894987768E-30 -3.49358978582101E-02
 N4       -2.36698716095136E-29 -2.62168559547549E-02 -6.75616224491042E-30  1.50503735903659E-01 -1.34333613621010E-29 -2.60422317689306E-02
 N18      -4.78781369349806E-30  1.84900443586443E-02  2.18758678663169E-29  1.59342814681212E-01  4.11069283623796E-30  1.57697439615045E-02
 N19       3.24536528998749E-29 -2.17917978541193E-02  2.35364046643675E-29  1.29638945547387E-01 -7.17139274092031E-30  2.24607617202431E-02
 N28      -7.07259253477325E-30 -7.38751188702077E-03 -6.31088724176809E-30 -1.46400207282449E+02 -1.29545751779263E-29  9.89243451358681E-03
 N29       7.20087112997340E-30  4.95100335470189E-03 -6.70531769437860E-30 -1.46406892402189E+02 -1.09416955150811E-29  1.29326496118927E-02
 N41       7.37968206440579E-31 -8.85140804695566E-03  1.57772181044202E-30 -1.46399110688451E+02 -1.72539248892791E-31 -1.23806041370294E-02
 N42       8.63827728306285E-30  1.18882741182264E-03  8.67746995743113E-30 -1.46417163387403E+02  3.78864123834996E-30 -1.19381923998177E-02
 N43       6.55690071803926E-30  1.32361333194171E-02  3.15544362088405E-30 -1.46409938491678E+02  6.31457058278674E-30 -5.23331851859250E-03
 N44       7.14447786994750E-30  1.33164095224407E-02 -6.31088724176809E-30 -1.46404140875790E+02 -3.95548093831358E-30  1.41097179451151E-03
 N45      -9.17280108353430E-30 -3.59471588516147E-03 -1.18329135783152E-29 -1.46403342501672E+02 -4.68350051288518E-30  1.19342558342196E-02
 N46       8.01385167464051E-30 -1.99580100939277E-03 -1.85382312726938E-29 -1.46401021150738E+02 -1.31664033976846E-29  1.61759239303230E-02
 N47      -3.59015008345655E-30 -8.42144724566858E-03  1.57772181044202E-30 -1.46414555094222E+02  3.53109281737616E-30 -3.58418421588657E-03
 N48      -1.47092177278846E-29 -9.33609607047092E-03 -7.88860905221012E-31 -1.46413755153614E+02  1.38035010232879E-30  1.65762443003267E-03
 N64      -1.04563711999806E-29  1.03587067957985E-04 -1.26692807554977E-29  1.49715491432255E-01  1.25680570875040E-29  2.58098905621631E-03
 N65       4.43671666463627E-30  8.95781610980759E-03 -2.17033045432998E-29  1.38350949047717E-01 -9.24660633012186E-30 -1.37008570732087E-02
 N110      1.59443246259282E-29  2.28293737372353E-02 -4.28224103368021E-30  1.44822919752559E-01 -7.02707639042089E-30 -1.85654865968469E-02
 N111     -5.37835196269579E-30  3.30964537943738E-02  1.03765253543695E-29  1.40766608542957E-01  5.55349422627905E-30  7.70047292576656E-04
 N121     -5.97293468477674E-30 -1.62627161547896E-02  6.65370277186902E-30  1.26114480557082E-01 -5.21277013572710E-30  2.77643606068783E-02
 N122     -1.08742578743721E-29 -5.32311897362910E-03  1.27808562969426E-29  1.19389084707480E-01 -1.29480270161154E-30  3.71588903545974E-02
 N123     -6.40955675981179E-30 -6.63228244730865E-03 -2.98332051042567E-30  1.55880779924228E-01  1.26931852145456E-30 -4.48775375129413E-03
 N124     -2.49167186555099E-30 -2.66258453216075E-02  6.66679909549086E-30  1.39450405851977E-01  6.49775059462227E-30  1.83742894805123E-02
 N248      5.20464978313580E-30 -7.20248292258234E-03  1.73549399148623E-30 -1.46425307093074E+02  1.85197272989000E-30 -9.13259263380818E-04
 N249      8.81885543761774E-30  9.34603158817340E-04  2.42726432375696E-30 -1.46431333539076E+02  6.87687545974204E-31 -1.51517395152096E-03
 N250      6.95914037593180E-30 -1.48615569390272E-03 -8.79016437246270E-30 -1.46419575398284E+02 -7.03638419202861E-30  3.59935219503869E-03
 N251     -3.19549086397212E-30 -3.24836011971226E-03 -5.52202633654708E-30 -1.46424364703625E+02  2.87540086836373E-31  9.07124271482369E-04
 N302     -1.85836200248050E-29 -3.72362535447169E-03 -2.35213824108013E-29  1.35934354244010E-01  1.13982191528048E-29 -4.59154515202781E-03
 N303     -1.02296069922682E-30  7.26647712251606E-03 -7.80104343740531E-30  1.46995103744989E-01 -7.78847523988542E-30 -1.30944988513105E-02
 N304     -6.86863222784343E-30 -1.07061214406337E-04  8.37033227954998E-30  1.67113599920546E-01  1.27289374386136E-30  3.37864823649393E-03
 N305     -1.15057892185201E-29 -5.67756285347914E-03 -1.44191623607780E-30  1.65434156198098E-01 -1.43840055413914E-30  7.22347649898450E-03
 

 ------>
 CHAMP AUX NOEUDS DE NOM SYMBOLIQUE  PRAC_NOEU                                   
 NUMERO D'ORDRE: 1 FREQ:   4.40000000000000E+01                                  
 NOEUD        PRES_R       PRES_I  
 N1        5.97415082496025E-15  9.75652870545155E+01
 N2        5.97421025452228E-15  9.75662576129176E+01
 N3       -8.89243733193954E-15 -1.45224522501195E+02
 N4       -8.89254638573426E-15 -1.45226303484819E+02
 N18      -8.89266709826589E-15 -1.45228274870066E+02
 N19      -8.89245793730481E-15 -1.45224859012347E+02
 N28       5.97417605742657E-15  9.75656991319624E+01
 N29       5.97425109488427E-15  9.75669245866444E+01
 N41       5.97419454218825E-15  9.75660010110298E+01
 N42       5.97428083543558E-15  9.75674102867065E+01
 N43       5.97428492044476E-15  9.75674769999690E+01
 N44       5.97423602286718E-15  9.75666784419259E+01
 N45       5.97422695857198E-15  9.75665304107515E+01
 N46       5.97419822787461E-15  9.75660612028559E+01
 N47       5.97422618863927E-15  9.75665178367961E+01
 N48       5.97425179152720E-15  9.75669359636869E+01
 N64      -8.89266775868767E-15 -1.45228285655572E+02
 N65      -8.89260400508792E-15 -1.45227244480275E+02
 N110     -8.89262324278593E-15 -1.45227558655725E+02
 N111     -8.89257666601141E-15 -1.45226797999272E+02
 N121     -8.89256462707154E-15 -1.45226601388464E+02
 N122     -8.89253938499533E-15 -1.45226189154076E+02
 N123     -8.89267177105449E-15 -1.45228351182495E+02
 N124     -8.89257153163276E-15 -1.45226714148506E+02
 N248      5.97432870746107E-15  9.75681920962130E+01
 N249      5.97438027157706E-15  9.75690342021333E+01
 N250      5.97432462297897E-15  9.75681253915583E+01
 N251      5.97432565309712E-15  9.75681422146643E+01
 N302     -8.89256109239591E-15 -1.45226543662830E+02
 N303     -8.89270852913868E-15 -1.45228951487566E+02
 N304     -8.89274308075458E-15 -1.45229515758275E+02
 N305     -8.89272545758793E-15 -1.45229227950122E+02
 
   
   !----------------------------------------------------------------------------------------------------------------!
   ! <EXCEPTION> <MATRICE0_12>                                                                                      !
   !                                                                                                                !
   !  Une des charges renseignées pour l'assemblage des vecteurs est déjà présente dans le mot-clé                  !
   !  CHARGE définissant les conditions de Dirichlet. Il est interdit de renseigner plus d'une fois la même charge. !
   !----------------------------------------------------------------------------------------------------------------!
   

 --------------------------------------------------------------------------------
 ASTER 11.03.00 CONCEPT Pr_3 CALCULE LE 24/06/2016 A 16:23:24 DE TYPE ACOU_HARMO 

                    ENTITES TOPOLOGIQUES SELECTIONNEES 
 GROUP_MA : ENTREE SORTIE                                                        


 ======>

 ------>
 CHAMP AUX NOEUDS DE NOM SYMBOLIQUE  INTE_NOEU                                   
 NUMERO D'ORDRE: 1 FREQ:   5.60000000000000E+01                                  
 NOEUD        INTX_R       INTX_I       INTY_R       INTY_I       INTZ_R       INTZ_I  
 N1       -7.15675567334297E-30 -3.50719942872040E-02 -3.15544362088405E-29 -2.93266268617234E+02  8.66283288985379E-31 -5.31983369007800E-02
 N2        3.10128647084788E-29  4.52281388410586E-02 -4.73316543132607E-29 -2.93307788621083E+02  1.95759223267296E-29 -5.39890831103299E-02
 N3       -3.52570365269249E-30  2.25238214144202E-02  3.33571066367869E-30  1.14376778157758E-01 -8.34582482100765E-30 -2.82626820570631E-02
 N4       -1.60414556927902E-29 -2.12092449818114E-02  6.79468084379817E-30  1.21757426001392E-01 -1.67727312926740E-29 -2.10682972335044E-02
 N18       1.44711005643854E-29  1.49586518877744E-02  3.98725276386489E-30  1.28909366886559E-01  4.96005803436812E-30  1.27577990846436E-02
 N19      -5.40300386598395E-30 -1.76292245324381E-02  7.62283071988468E-30  1.04876729441692E-01 -6.81586607318643E-31  1.81706636753814E-02
 N28      -1.24519074624412E-29 -3.98170304062113E-02  3.15544362088405E-29 -2.93276885079032E+02  5.66531552440949E-30  5.27481822248149E-02
 N29       3.54538786043035E-29  2.40559047910207E-02 -1.10440526730942E-29 -2.93307943325891E+02  2.79329656896633E-30  7.20168592728269E-02
 N41       2.18015269704635E-31 -4.89604516592985E-02 -2.20881053461883E-29 -2.93269127873916E+02  2.50033855030073E-30 -6.49058732439019E-02
 N42       1.72915126220271E-29  4.76760833277648E-03 -1.94585689954516E-29 -2.93360858731669E+02  3.92767733091852E-30 -6.31952587264661E-02
 N43       3.56610003327602E-29  6.94849369115192E-02 -1.57772181044202E-29 -2.93321680327986E+02 -7.85216082801259E-30 -2.73458016141567E-02
 N44       2.68193448475700E-29  6.94476686962729E-02 -4.73316543132607E-30 -2.93292891947814E+02  1.91986326506242E-30  8.40956614634121E-03
 N45      -2.53533390109646E-29 -2.02488193590905E-02  6.31088724176809E-30 -2.93290835520983E+02  7.23456324309621E-30  6.41105042815768E-02
 N46      -1.73442028554223E-29 -1.20133925507586E-02 -4.73316543132607E-30 -2.93280549268271E+02 -2.06523245726476E-29  8.74075366900516E-02
 N47       7.11243177133714E-30 -4.67872492262154E-02 -1.62279957645465E-29 -2.93350375126797E+02  1.64968693414254E-29 -1.76709226329610E-02
 N48      -1.14801795090007E-29 -5.07459049591655E-02  2.36658271566304E-30 -2.93345410160770E+02  1.83433271623218E-29  9.11024173176643E-03
 N64      -8.67206130417064E-31  8.37233707342216E-05  7.54707747540545E-30  1.21120776339177E-01 -4.27709719578707E-30  2.08843473407113E-03
 N65       1.13419458872423E-29  7.24684120712136E-03 -2.79645027925027E-30  1.11925784350209E-01 -8.14692440600106E-31 -1.10837320737769E-02
 N110     -9.24260200077916E-30  1.84687387761540E-02  3.86572658437406E-30  1.17161720230278E-01 -6.89861686313027E-30 -1.50195843573769E-02
 N111     -5.20116640781217E-30  2.67748079031857E-02  1.23756406366435E-29  1.13880130926230E-01  9.11726207876303E-31  6.23019241266445E-04
 N121      2.93928205875088E-30 -1.31562783669151E-02  1.07212668144149E-29  1.02026413906227E-01 -6.75072149281753E-30  2.24612186983980E-02
 N122      8.08678724348756E-30 -4.30630575686661E-03  5.93090126374049E-30  9.65856559047853E-02  7.76997176763586E-30  3.00612483105817E-02
 N123     -4.11646202816959E-30 -5.36490784849560E-03  1.00814178603196E-29  1.26108382169637E-01 -2.94271778020525E-31 -3.63090917362893E-03
 N124     -2.50409411369228E-30 -2.15399200518794E-02  3.75344486861628E-30  1.12814864057821E-01  4.73730618070650E-31  1.48648190045372E-02
 N248     -2.33960284455460E-30 -4.11110384179065E-02 -4.41762106923767E-30 -2.93401410469122E+02  1.05711554711143E-29 -4.08248463708303E-03
 N249      1.86828241669801E-29  3.78024344146262E-03 -8.73815156552505E-30 -2.93431144569710E+02 -5.97685691518272E-30 -7.76651874037590E-03
 N250     -2.00904069980877E-30 -9.55797085369301E-03 -1.82564952351148E-29 -2.93370778959482E+02 -2.12843116055771E-30  2.12410866704050E-02
 N251     -1.46549857474454E-29 -1.96898007627754E-02  5.78497997162075E-30 -2.93397353947099E+02  5.18104570610801E-30  6.09110026721271E-03
 N302      9.04239155217498E-30 -3.01248657382424E-03  5.58201905431475E-30  1.09971056581609E-01  1.23242664553770E-30 -3.71431518764162E-03
 N303      5.84821216374019E-30  5.87839223202261E-03  1.98113993612634E-30  1.18920005300528E-01 -4.27479009220786E-30 -1.05933821748477E-02
 N304      6.08793357923633E-30 -8.65813874259046E-05  9.38476772950734E-30  1.35196186906401E-01  3.19004265140841E-30  2.73321369242587E-03
 N305      9.20087237226390E-31 -4.59288454643689E-03  8.86384494947797E-30  1.33837117062856E-01  3.29734596722847E-30  5.84354269205067E-03
 

 ------>
 CHAMP AUX NOEUDS DE NOM SYMBOLIQUE  PRAC_NOEU                                   
 NUMERO D'ORDRE: 1 FREQ:   5.60000000000000E+01                                  
 NOEUD        PRES_R       PRES_I  
 N1        1.19609054472301E-14  1.95336409739653E+02
 N2        1.19611265178819E-14  1.95340020097381E+02
 N3       -7.08966730692452E-15 -1.15783053723908E+02
 N4       -7.08980814402245E-15 -1.15785353768264E+02
 N18      -7.08996403612043E-15 -1.15787899679430E+02
 N19      -7.08969392021049E-15 -1.15783488351851E+02
 N28       1.19609801233768E-14  1.95337629293679E+02
 N29       1.19612499807651E-14  1.95342036399278E+02
 N41       1.19610590641788E-14  1.95338918494811E+02
 N42       1.19613589131151E-14  1.95343815399560E+02
 N43       1.19613769382100E-14  1.95344109771699E+02
 N44       1.19612085184831E-14  1.95341359268827E+02
 N45       1.19611545227132E-14  1.95340477450985E+02
 N46       1.19610652888484E-14  1.95339020151379E+02
 N47       1.19611522043603E-14  1.95340439589408E+02
 N48       1.19612368331394E-14  1.95341821682256E+02
 N64      -7.08996488896151E-15 -1.15787913607382E+02
 N65      -7.08988255503919E-15 -1.15786568992389E+02
 N110     -7.08990739909297E-15 -1.15786974726578E+02
 N111     -7.08984724976578E-15 -1.15785992413519E+02
 N121     -7.08983170224622E-15 -1.15785738503256E+02
 N122     -7.08979910382057E-15 -1.15785206130564E+02
 N123     -7.08997007313560E-15 -1.15787998271370E+02
 N124     -7.08984062106380E-15 -1.15785884158600E+02
 N248      1.19615139017531E-14  1.95346346556104E+02
 N249      1.19616956841733E-14  1.95349315288319E+02
 N250      1.19615004050734E-14  1.95346126138596E+02
 N251      1.19614925936255E-14  1.95345998567971E+02
 N302     -7.08982713333037E-15 -1.15785663887197E+02
 N303     -7.09001753972310E-15 -1.15788773459571E+02
 N304     -7.09006216306465E-15 -1.15789502214043E+02
 N305     -7.09003940358769E-15 -1.15789130523577E+02
 
   
   !----------------------------------------------------------------------------------------------------------------!
   ! <EXCEPTION> <MATRICE0_12>                                                                                      !
   !                                                                                                                !
   !  Une des charges renseignées pour l'assemblage des vecteurs est déjà présente dans le mot-clé                  !
   !  CHARGE définissant les conditions de Dirichlet. Il est interdit de renseigner plus d'une fois la même charge. !
   !----------------------------------------------------------------------------------------------------------------!
   

 --------------------------------------------------------------------------------
 ASTER 11.03.00 CONCEPT Pr_4 CALCULE LE 24/06/2016 A 16:23:24 DE TYPE ACOU_HARMO 

                    ENTITES TOPOLOGIQUES SELECTIONNEES 
 GROUP_MA : ENTREE SORTIE                                                        


 ======>

 ------>
 CHAMP AUX NOEUDS DE NOM SYMBOLIQUE  INTE_NOEU                                   
 NUMERO D'ORDRE: 1 FREQ:   6.80000000000000E+01                                  
 NOEUD        INTX_R       INTX_I       INTY_R       INTY_I       INTZ_R       INTZ_I  
 N1       -2.03516869083288E-29 -9.19656543596996E-02  5.99534287967969E-29 -4.26577519585878E+02 -1.06748904213540E-28 -1.36866629613821E-01
 N2        1.29129750911275E-29  1.16542685812345E-01 -9.46633086265214E-30 -4.26682132280597E+02 -4.58063177973060E-30 -1.39833892390946E-01
 N3       -1.33466945146035E-30  1.92340140039698E-02 -5.34175929375244E-30  9.76715550793666E-02 -3.06367305903400E-30 -2.41346907089655E-02
 N4        4.50205383799960E-30 -1.81116269811032E-02  3.84338579701917E-30  1.03975771235327E-01  4.72238022363750E-30 -1.79916054629524E-02
 N18      -1.56592548953265E-30  1.27742964127384E-02  4.62030593658498E-31  1.10084429697138E-01 -4.75781131608315E-30  1.08947207162891E-02
 N19       9.34114541626697E-30 -1.50542784696520E-02 -8.22757272242227E-31  8.95592008511499E-02 -1.47757345333389E-30  1.55169074897273E-02
 N28      -4.67769864892772E-30 -1.03720541473588E-01  5.04870979341448E-29 -4.26604815882297E+02 -8.23835793011084E-30  1.37003751832445E-01
 N29       6.91157034694789E-29  6.08423506383442E-02 -3.62876016401665E-29 -4.26681912795392E+02 -9.78386856223299E-30  1.89196821914813E-01
 N41       2.32136188056882E-29 -1.28408129479350E-01  7.73083687116592E-29 -4.26583080116285E+02 -6.13004241999013E-29 -1.67813826895227E-01
 N42      -1.05117256364655E-30  1.12804476971893E-02  2.62953635073671E-29 -4.26817899195388E+02 -1.10538107181457E-29 -1.63827745432849E-01
 N43       3.07933086948186E-29  1.79718372167311E-01  3.47098798297245E-29 -4.26715610495834E+02 -9.87462801086224E-30 -7.06425527195597E-02
 N44       7.54198018081930E-29  1.79293589315871E-01  3.15544362088405E-30 -4.26642459363876E+02  3.03690263280701E-30  2.24589924725330E-02
 N45      -4.48781640088572E-29 -5.33542357887636E-02 -1.18329135783152E-29 -4.26638980651318E+02  2.55794311493735E-29  1.66850382982745E-01
 N46      -2.29242959797927E-29 -3.21653182450478E-02 -1.04129639489174E-28 -4.26613681042572E+02 -6.31319835770136E-30  2.27837843196984E-01
 N47       2.38320624241159E-29 -1.22847044057065E-01  7.21244256202068E-30 -4.26793460181235E+02 -2.98065722444543E-29 -4.48944637369056E-02
 N48      -5.30901848469785E-29 -1.32486205252399E-01  3.86541843558296E-29 -4.26780046776357E+02  3.14190433337500E-29  2.38465361988807E-02
 N64       1.08349608787985E-31  7.14131755210444E-05 -5.53614982280592E-30  1.03433199813835E-01  1.91640461587062E-30  1.78387717946391E-03
 N65       7.39855617786079E-30  6.18847276147955E-03 -8.74718862141795E-30  9.55799112503013E-02  4.28013856015758E-31 -9.46477811463428E-03
 N110     -9.29595026023868E-30  1.57713114857345E-02 -3.89371676623249E-30  1.00051305024174E-01  4.12583947277976E-30 -1.28262238526611E-02
 N111     -6.94759968138251E-30  2.28643570284005E-02  8.99601877023278E-31  9.72489262887611E-02  3.36599365510503E-30  5.32087259500452E-04
 N121      4.67124076508294E-30 -1.12346506559686E-02  2.45055326123832E-30  8.71261817747106E-02 -1.13023198786365E-30  1.91808066005701E-02
 N122     -6.47557832613751E-31 -3.67730614522453E-03 -3.72513369843379E-30  8.24800887880214E-02  2.02896719641195E-30  2.56707682769118E-02
 N123      4.13540492483688E-30 -4.58076791227423E-03  1.24150946872185E-30  1.07692292568180E-01  2.35155444356574E-30 -3.10098305859746E-03
 N124      4.28731264920043E-30 -1.83938011056455E-02  2.75985761030691E-31  9.63387460819682E-02 -1.96709669694851E-30  1.26939690326458E-02
 N248      1.09024197849839E-29 -1.08682916827493E-01  6.62643160385650E-30 -4.26921212831209E+02 -4.83885281373562E-29 -1.00575114243376E-02
 N249      9.78769449614174E-30  8.97400932986142E-03  3.00980776145863E-29 -4.26996569446993E+02 -2.29792479463020E-29 -1.99594383492196E-02
 N250      2.23975816532877E-29 -2.59722586009637E-02 -3.02021032284616E-29 -4.26841602419952E+02 -3.82812968053113E-30  5.66015218478326E-02
 N251     -1.15820571907047E-29 -5.28045010292923E-02 -4.39132570573030E-29 -4.26911502759149E+02 -2.97077845030254E-30  1.66924417792070E-02
 N302      3.65753054812026E-30 -2.57261859170522E-03 -7.73106798275924E-30  9.39109684309980E-02  2.08282101248188E-30 -3.17161418157193E-03
 N303      1.27303342393676E-30  5.01970827916747E-03 -6.07361267261959E-30  1.01553855088084E-01  2.40107792652633E-30 -9.04624454429448E-03
 N304     -7.30620708471103E-31 -7.39039910740255E-05 -3.90766370891309E-30  1.15453387152790E-01  1.02480331013162E-30  2.33393386027968E-03
 N305      4.20931334624290E-30 -3.92185666211096E-03 -3.93439974353392E-31  1.14292373554425E-01  3.16728937972726E-30  4.98988277835404E-03
 

 ------>
 CHAMP AUX NOEUDS DE NOM SYMBOLIQUE  PRAC_NOEU                                   
 NUMERO D'ORDRE: 1 FREQ:   6.80000000000000E+01                                  
 NOEUD        PRES_R       PRES_I  
 N1        1.73859873855692E-14  2.83934721385366E+02
 N2        1.73864785808446E-14  2.83942743212978E+02
 N3       -5.94541342019379E-15 -9.70959696188847E+01
 N4       -5.94558756708008E-15 -9.70988136533673E+01
 N18      -5.94578032716152E-15 -9.71019616643949E+01
 N19      -5.94544633179410E-15 -9.70965071061068E+01
 N28       1.73861431305272E-14  2.83937264893553E+02
 N29       1.73867377629179E-14  2.83946975977453E+02
 N41       1.73863238893289E-14  2.83940216908809E+02
 N42       1.73869788282695E-14  2.83950912873409E+02
 N43       1.73870204038178E-14  2.83951591853640E+02
 N44       1.73866534157430E-14  2.83945598483551E+02
 N45       1.73865226422019E-14  2.83943462789551E+02
 N46       1.73863338007706E-14  2.83940378774935E+02
 N47       1.73865177260899E-14  2.83943382503349E+02
 N48       1.73867001261104E-14  2.83946361321741E+02
 N64      -5.94578138162810E-15 -9.71019788851411E+01
 N65      -5.94567957530898E-15 -9.71003162617759E+01
 N110     -5.94571029469272E-15 -9.71008179473845E+01
 N111     -5.94563592244037E-15 -9.70996033563301E+01
 N121     -5.94561669791767E-15 -9.70992893960485E+01
 N122     -5.94557639008875E-15 -9.70986311192467E+01
 N123     -5.94578779563285E-15 -9.71020836337880E+01
 N124     -5.94562772914042E-15 -9.70994695495877E+01
 N248      1.73873108726436E-14  2.83956335569559E+02
 N249      1.73877094248876E-14  2.83962844421650E+02
 N250      1.73872818200502E-14  2.83955861104703E+02
 N251      1.73872582478336E-14  2.83955476141191E+02
 N302     -5.94561104215520E-15 -9.70991970304378E+01
 N303     -5.94584648178500E-15 -9.71030420513853E+01
 N304     -5.94590166186610E-15 -9.71039432104974E+01
 N305     -5.94587351931576E-15 -9.71034836077718E+01
 
   
   !----------------------------------------------------------------------------------------------------------------!
   ! <EXCEPTION> <MATRICE0_12>                                                                                      !
   !                                                                                                                !
   !  Une des charges renseignées pour l'assemblage des vecteurs est déjà présente dans le mot-clé                  !
   !  CHARGE définissant les conditions de Dirichlet. Il est interdit de renseigner plus d'une fois la même charge. !
   !----------------------------------------------------------------------------------------------------------------!
   

 --------------------------------------------------------------------------------
 ASTER 11.03.00 CONCEPT Pr_5 CALCULE LE 24/06/2016 A 16:23:25 DE TYPE ACOU_HARMO 

                    ENTITES TOPOLOGIQUES SELECTIONNEES 
 GROUP_MA : ENTREE SORTIE                                                        


 ======>

 ------>
 CHAMP AUX NOEUDS DE NOM SYMBOLIQUE  INTE_NOEU                                   
 NUMERO D'ORDRE: 1 FREQ:   8.00000000000000E+01                                  
 NOEUD        INTX_R       INTX_I       INTY_R       INTY_I       INTZ_R       INTZ_I  
 N1        5.32943334210836E-29 -1.84184381816100E-01  7.57306469012171E-29 -5.54224080977019E+02 -3.07686567915305E-29 -2.71717775290166E-01
 N2       -6.09056085613019E-29  2.31533847816026E-01  3.78653234506086E-29 -5.54429585906080E+02 -7.58939657605012E-29 -2.78479243895105E-01
 N3       -3.50562583302226E-30  1.70736913723008E-02 -7.45334888477860E-31  8.67018680537692E-02 -1.94952258620598E-30 -2.14239647167829E-02
 N4        6.19090180623277E-30 -1.60775630038257E-02  2.66548704303193E-30  9.22996807567040E-02 -5.88179005015862E-31 -1.59713815928598E-02
 N18       3.03232854918909E-30  1.13400350283290E-02 -3.35516255611700E-30  9.77236302516595E-02  1.51468973448088E-30  9.67138161397462E-03
 N19       4.52526129382947E-30 -1.33633737070387E-02  4.91266210214296E-30  7.95008105149049E-02 -1.46640305965644E-30  1.37743295712964E-02
 N28       5.50060999556550E-29 -2.07101662833461E-01  3.15544362088405E-29 -5.54278268099798E+02  1.09146301808313E-28  2.73178672485370E-01
 N29       3.60716085969035E-29  1.19816450781970E-01  2.20881053461883E-29 -5.54428590920318E+02 -3.03181817775383E-29  3.79230232887216E-01
 N41      -1.33382204228482E-29 -2.57195081086925E-01  5.36425415550288E-29 -5.54233393719866E+02 -4.81243670783705E-29 -3.33925794081075E-01
 N42      -6.54551686712631E-29  2.14756909001662E-02  3.47098798297245E-29 -5.54698375082973E+02 -1.89208493549787E-29 -3.26402921681296E-01
 N43      -7.96757217992999E-29  3.57671679666959E-01 -3.15544362088405E-30 -5.54493893304810E+02  4.00350761259552E-29 -1.40521478863800E-01
 N44       5.25925245493489E-29  3.56519340156917E-01  4.10207670714926E-29 -5.54349568785738E+02  2.41270873783111E-29  4.53416030593270E-02
 N45       2.46927330029776E-29 -1.07093953309607E-01 -4.73316543132607E-30 -5.54344436828906E+02  4.03212693156912E-29  3.33003850377616E-01
 N46      -3.01967518945447E-29 -6.50249986358726E-02 -4.89093761237027E-29 -5.54295284906356E+02  3.09312052788368E-29  4.55051875003003E-01
 N47       1.39719064011215E-29 -2.46182774630424E-01  4.05699894113663E-29 -5.54652333824844E+02  5.47536380532307E-30 -8.86080132081046E-02
 N48       8.68001218495772E-29 -2.64813047597600E-01  1.10440526730942E-29 -5.54625092632671E+02  2.12069923966312E-29  4.77073371989469E-02
 N64       3.94478600859116E-30  6.33057386447217E-05  2.56405473262754E-30  9.18192045122891E-02 -6.10363310562772E-31  1.58402174717107E-03
 N65      -4.86778793443874E-30  5.49350091526018E-03  4.37552024065336E-30  8.48465942639559E-02  6.82429201669312E-31 -8.40163536671359E-03
 N110     -2.50239287557474E-30  1.40000166627417E-02  2.20275027506049E-30  8.88159971669054E-02 -7.24390400332649E-31 -1.13860182661316E-02
 N111     -2.54083122738147E-30  2.02965486342010E-02  2.02607830149537E-31  8.63282748603258E-02  1.49973067549095E-30  4.72394242779708E-04
 N121      4.69633202113966E-30 -9.97276261623873E-03  1.30423975833904E-30  7.73421033550431E-02 -1.49348644949939E-30  1.70267269734838E-02
 N122     -1.02939149968175E-30 -3.26425283328217E-03 -5.41340388768364E-30  7.32178421613362E-02 -4.52063906196294E-31  2.27877343640553E-02
 N123      3.90502931188202E-30 -4.06568679199025E-03  6.42160070028544E-31  9.55998954377751E-02 -5.71261773950789E-31 -2.75311187221823E-03
 N124      6.65103054407119E-30 -1.63278290788783E-02  4.22760882092442E-30  8.55197890618516E-02 -2.30161267269535E-30  1.12685187097102E-02
 N248     -2.32298158765205E-29 -2.18475932177124E-01  1.76704842769507E-29 -5.54902521194923E+02  4.41104802080075E-29 -1.95623849707564E-02
 N249     -2.53029268687424E-29  1.71142808210873E-02  0.00000000000000E+00 -5.55051000033610E+02  4.99067411676722E-29 -3.96145117140056E-02
 N250     -1.11115496393237E-30 -5.28475087651392E-02 -2.38912159866935E-29 -5.54743725674860E+02  2.78625660718747E-29  1.14170411853476E-01
 N251      2.26713351124825E-30 -1.06827479510845E-01  5.25907270147341E-30 -5.54883959499425E+02  2.83283734012573E-29  3.40731081309259E-02
 N302     -2.40422260901365E-31 -2.28380842641513E-03  3.44500718802267E-30  8.33653994008511E-02 -3.20230992237450E-31 -2.81518198965458E-03
 N303     -3.74919854416989E-30  4.45580839747945E-03  1.48129691789304E-30  9.01509265860819E-02 -2.59762559742638E-31 -8.03031844221453E-03
 N304     -2.01772909425990E-30 -6.55699670602465E-05 -2.33836784197776E-30  1.02489965105245E-01 -1.55359163856654E-31  2.07171841960972E-03
 N305      2.21125560585805E-30 -3.48115498336160E-03 -6.93444833119084E-31  1.01458879197439E-01 -1.63950547109994E-30  4.42926322045590E-03
 

 ------>
 CHAMP AUX NOEUDS DE NOM SYMBOLIQUE  PRAC_NOEU                                   
 NUMERO D'ORDRE: 1 FREQ:   8.00000000000000E+01                                  
 NOEUD        PRES_R       PRES_I  
 N1        2.25694688268394E-14  3.68587397485596E+02
 N2        2.25703661215783E-14  3.68602051420747E+02
 N3       -5.16444335254474E-15 -8.43417605164270E+01
 N4       -5.16465272527800E-15 -8.43451798326479E+01
 N18      -5.16488447261193E-15 -8.43489645538278E+01
 N19      -5.16448292701820E-15 -8.43424068166254E+01
 N28       2.25697451457034E-14  3.68591910115102E+02
 N29       2.25708273292116E-14  3.68609583512997E+02
 N41       2.25700795946675E-14  3.68597372081186E+02
 N42       2.25712667972428E-14  3.68616760570603E+02
 N43       2.25713440158443E-14  3.68618021646067E+02
 N44       2.25706795580772E-14  3.68607170227233E+02
 N45       2.25704319003725E-14  3.68603125669980E+02
 N46       2.25700946356073E-14  3.68597617718373E+02
 N47       2.25704230157929E-14  3.68602980573783E+02
 N48       2.25707516688138E-14  3.68608347884931E+02
 N64      -5.16488574026638E-15 -8.43489852561960E+01
 N65      -5.16476334182020E-15 -8.43469863378750E+01
 N110     -5.16480027414166E-15 -8.43475894884566E+01
 N111     -5.16471086265728E-15 -8.43461292881043E+01
 N121     -5.16468774972520E-15 -8.43457518252783E+01
 N122     -5.16463928934492E-15 -8.43449604072088E+01
 N123     -5.16489345699036E-15 -8.43491112798624E+01
 N124     -5.16470101660008E-15 -8.43459684897875E+01
 N248      2.25718633163598E-14  3.68626502467082E+02
 N249      2.25725870223576E-14  3.68638321482954E+02
 N250      2.25718110576104E-14  3.68625649016937E+02
 N251      2.25717629274370E-14  3.68624862991555E+02
 N302     -5.16468094099124E-15 -8.43456406302143E+01
 N303     -5.16496400408654E-15 -8.43502634013757E+01
 N304     -5.16503034974106E-15 -8.43513469081396E+01
 N305     -5.16499651437588E-15 -8.43507943346923E+01
 
   
   !----------------------------------------------------------------------------------------------------------------!
   ! <EXCEPTION> <MATRICE0_12>                                                                                      !
   !                                                                                                                !
   !  Une des charges renseignées pour l'assemblage des vecteurs est déjà présente dans le mot-clé                  !
   !  CHARGE définissant les conditions de Dirichlet. Il est interdit de renseigner plus d'une fois la même charge. !
   !----------------------------------------------------------------------------------------------------------------!
   

 --------------------------------------------------------------------------------
 ASTER 11.03.00 CONCEPT Pr_6 CALCULE LE 24/06/2016 A 16:23:25 DE TYPE ACOU_HARMO 

                    ENTITES TOPOLOGIQUES SELECTIONNEES 
 GROUP_MA : ENTREE SORTIE                                                        


 ======>

 ------>
 CHAMP AUX NOEUDS DE NOM SYMBOLIQUE  INTE_NOEU                                   
 NUMERO D'ORDRE: 1 FREQ:   9.20000000000000E+01                                  
 NOEUD        INTX_R       INTX_I       INTY_R       INTY_I       INTZ_R       INTZ_I  
 N1       -2.49323186880594E-29 -3.20505717764615E-01 -1.89326617253043E-29 -6.80395840235258E+02  7.06893326787891E-30 -4.70412554763444E-01
 N2        1.83348530705665E-30  4.01005627073788E-01  1.57772181044202E-28 -6.80749312243788E+02 -1.20566296006552E-28 -4.83013910134696E-01
 N3        9.00564841995471E-31  1.56162528584839E-02  2.03994499709496E-30  7.93014588047022E-02 -2.86539857125933E-30 -1.95952113476142E-02
 N4       -4.50417236093843E-30 -1.47053624908899E-02 -9.19053769461589E-31  8.44232105752295E-02  1.34815096107107E-33 -1.46086268372069E-02
 N18       2.08650435350052E-30  1.03725834077499E-02 -4.40460178281361E-31  8.93856539444431E-02  1.54377428590666E-30  8.84617000230014E-03
 N19      -3.05346563032874E-30 -1.22226106154571E-02 -3.60765197182617E-30  7.27152393329603E-02 -2.56148682603502E-32  1.25987933571380E-02
 N28      -9.52148949625939E-29 -3.59755449746210E-01 -7.57306469012171E-29 -6.80489636561686E+02 -1.53772409735699E-28  4.74131397994564E-01
 N29       7.13389488490309E-29  2.06441687099323E-01  9.93964740578475E-29 -6.80747001689041E+02  4.19500282696595E-29  6.60219868098820E-01
 N41       5.35978599803190E-29 -4.47585549845982E-01 -2.68212707775144E-29 -6.80410157759386E+02  4.45228780823664E-29 -5.78898505544129E-01
 N42      -1.42179852214443E-29  3.62355207909955E-02  4.31243961520820E-29 -6.81213859730786E+02 -4.17854896547440E-29 -5.66281709093137E-01
 N43      -7.07756143402977E-29  6.20118437383687E-01  2.20881053461883E-29 -6.80858390469253E+02 -5.72744602441543E-29 -2.43575312363029E-01
 N44      -6.41873931865378E-30  6.17802215449368E-01  6.62643160385650E-29 -6.80609486826310E+02 -3.49230802745682E-29  7.92509699180663E-02
 N45      -1.99541749678073E-29 -1.86605494836217E-01 -9.62410304369634E-29 -6.80602452303771E+02 -1.12921124499312E-28  5.78288990457904E-01
 N46       8.69208776570903E-29 -1.13766794525802E-01 -5.52202633654708E-29 -6.80518461283615E+02 -6.70485547119195E-29  7.90570202886885E-01
 N47       3.09403396894301E-30 -4.28549099623328E-01 -2.70466596075775E-29 -6.81136750537779E+02 -1.26659057925476E-29 -1.52886093210318E-01
 N48      -8.15669850046882E-29 -4.60287186454294E-01 -6.46865942281230E-29 -6.81088942485612E+02 -1.00480772616538E-28  8.29442035620842E-02
 N64      -9.21629700762207E-31  5.78099926215059E-05 -2.31869125771261E-30  8.39849761291299E-02  2.71838591883777E-30  1.44934491342596E-03
 N65      -1.99665972159486E-30  5.02467710398466E-03  1.34622503112668E-30  7.76060861611070E-02  2.78513544082699E-31 -7.68437323959648E-03
 N110      7.05853324617922E-31  1.28050633020522E-02  6.56356925047170E-31  8.12368949619163E-02 -1.51517723549805E-30 -1.04145222168518E-02
 N111      1.16005982787735E-30  1.85642849867766E-02 -3.20474742746036E-31  7.89614219738619E-02  1.45931097309951E-30  4.32144638030674E-04
 N121     -1.23121090226030E-30 -9.12143239038585E-03 -3.57548894175490E-30  7.07419088983000E-02  2.69004264982287E-31  1.55735814480986E-02
 N122     -2.26196258996528E-30 -2.98558285642121E-03 -4.73971359313699E-31  6.69696936412190E-02  1.02637621561257E-30  2.08428028320470E-02
 N123     -1.01026030897078E-30 -3.71801737831437E-03 -2.87799965575261E-30  8.74429095109628E-02  1.48010639512682E-30 -2.51855249780829E-03
 N124     -1.25883595990011E-30 -1.49340371397207E-02 -3.98821572883709E-30  7.82213813539857E-02 -6.34539749895908E-31  1.03069479145516E-02
 N248      6.37195462844472E-29 -3.81010637568986E-01 -3.78653234506086E-30 -6.81566281681278E+02 -6.21843899331886E-29 -3.34701452879990E-02
 N249     -3.89025996889641E-29  2.89073748370214E-02 -1.06799630245306E-29 -6.81822148746493E+02 -2.01403086895094E-29 -6.85885016672255E-02
 N250      3.81583777657714E-29 -9.28077838844185E-02  1.80311064050517E-30 -6.81290600301292E+02 -4.56332867484453E-29  1.99474258913885E-01
 N251      4.88774588503171E-30 -1.86985618390015E-01 -7.20492960101857E-29 -6.81534892545251E+02 -8.34843606102391E-29  5.99183834209483E-02
 N302     -2.84328046955426E-30 -2.08900836767979E-03 -2.45036066824388E-30  7.62516430961203E-02  2.11735233453164E-30 -2.57465691010126E-03
 N303     -1.59594191018674E-30  4.07534995622884E-03  9.37735289922145E-31  8.24590869871019E-02 -2.55564634316982E-31 -7.34497334388833E-03
 N304     -1.40038635651878E-30 -5.99373994936698E-05  4.96986222149126E-31  9.37455591238203E-02  7.55624319669026E-31  1.89479592816998E-03
 N305     -1.40389459589892E-30 -3.18377754721630E-03 -2.02305184015419E-30  9.28019836890096E-02  3.26819994080669E-31  4.05099721479475E-03
 

 ------>
 CHAMP AUX NOEUDS DE NOM SYMBOLIQUE  PRAC_NOEU                                   
 NUMERO D'ORDRE: 1 FREQ:   9.20000000000000E+01                                  
 NOEUD        PRES_R       PRES_I  
 N1        2.76798249652576E-14  4.52045846762174E+02
 N2        2.76812945845128E-14  4.52069847465989E+02
 N3       -4.60577878122505E-15 -7.52180756840548E+01
 N4       -4.60602572398101E-15 -7.52221085653089E+01
 N18      -4.60629905128685E-15 -7.52265723389624E+01
 N19      -4.60582546466387E-15 -7.52188380824679E+01
 N28       2.76802699597404E-14  4.52053114073584E+02
 N29       2.76820385238631E-14  4.52081996917583E+02
 N41       2.76808215516949E-14  4.52062122253819E+02
 N42       2.76827572817914E-14  4.52093735125348E+02
 N43       2.76828849932527E-14  4.52095820811790E+02
 N44       2.76818024141584E-14  4.52078140953483E+02
 N45       2.76813885720407E-14  4.52071382398804E+02
 N46       2.76808434917367E-14  4.52062480561892E+02
 N47       2.76813739640433E-14  4.52071143832102E+02
 N48       2.76819080199126E-14  4.52079865626332E+02
 N64      -4.60630054628578E-15 -7.52265967541478E+01
 N65      -4.60615618580805E-15 -7.52242391686328E+01
 N110     -4.60619974409224E-15 -7.52249505293977E+01
 N111     -4.60609429474433E-15 -7.52232284108573E+01
 N121     -4.60606703476112E-15 -7.52227832215468E+01
 N122     -4.60600987967824E-15 -7.52218498082080E+01
 N123     -4.60630965498648E-15 -7.52267455105191E+01
 N124     -4.60608268814565E-15 -7.52230388607162E+01
 N248      2.76837247941946E-14  4.52109535801981E+02
 N249      2.76849060054969E-14  4.52128826446485E+02
 N250      2.76836400492359E-14  4.52108151811776E+02
 N251      2.76835564286266E-14  4.52106786183591E+02
 N302     -4.60605899202151E-15 -7.52226518736412E+01
 N303     -4.60639284755345E-15 -7.52281041482428E+01
 N304     -4.60647110370848E-15 -7.52293821682414E+01
 N305     -4.60643119657646E-15 -7.52287304353164E+01
 
   
   !----------------------------------------------------------------------------------------------------------------!
   ! <EXCEPTION> <MATRICE0_12>                                                                                      !
   !                                                                                                                !
   !  Une des charges renseignées pour l'assemblage des vecteurs est déjà présente dans le mot-clé                  !
   !  CHARGE définissant les conditions de Dirichlet. Il est interdit de renseigner plus d'une fois la même charge. !
   !----------------------------------------------------------------------------------------------------------------!
   

 --------------------------------------------------------------------------------
 ASTER 11.03.00 CONCEPT Pr_7 CALCULE LE 24/06/2016 A 16:23:25 DE TYPE ACOU_HARMO 

                    ENTITES TOPOLOGIQUES SELECTIONNEES 
 GROUP_MA : ENTREE SORTIE                                                        


 ======>

 ------>
 CHAMP AUX NOEUDS DE NOM SYMBOLIQUE  INTE_NOEU                                   
 NUMERO D'ORDRE: 1 FREQ:   1.04000000000000E+02                                  
 NOEUD        INTX_R       INTX_I       INTY_R       INTY_I       INTZ_R       INTZ_I  
 N1        1.29989486038450E-28 -5.11588353792128E-01 -1.45150406560666E-28 -8.07780264326404E+02  1.00037423543340E-28 -7.48267376755046E-01
 N2        1.54937212166064E-28  6.38030687106022E-01 -4.41762106923767E-29 -8.08339928923088E+02 -1.53661476170902E-28 -7.69296212793727E-01
 N3       -9.29646384155719E-31  1.46354438194314E-02 -9.02105585950981E-31  7.43214235322399E-02  5.87408633038107E-33 -1.83645296420138E-02
 N4        2.83246516921031E-30 -1.37819845848431E-02  2.98596178577797E-30  7.91233920722579E-02 -5.47252993697633E-31 -1.36917321619376E-02
 N18      -6.24386487970342E-31  9.72170322293359E-03  2.17938232506860E-30  8.37757528862462E-02 -1.06128369585459E-30  8.29094714058115E-03
 N19      -5.77682686818951E-31 -1.14548995969416E-02  6.54045809113905E-31  6.81490189510835E-02 -4.29212747406139E-30  1.18077834022019E-02
 N28       1.00487320778348E-28 -5.73561324675586E-01 -2.71368151396028E-28 -8.07929416190385E+02  3.94676971643387E-29  7.55441814754508E-01
 N29      -5.10658398824331E-29  3.27302807754926E-01 -1.53039015612876E-28 -8.08335573377772E+02  3.48782061068640E-29  1.05415296405685E+00
 N41      -6.15835359017263E-30 -7.14474249501011E-01 -9.93964740578475E-29 -8.07801030877799E+02 -2.49600520792586E-30 -9.21693218162990E-01
 N42      -4.08759371396747E-29  5.66018524585619E-02 -1.17803228513004E-28 -8.09077957480990E+02 -3.52558167712935E-29 -9.02079736147577E-01
 N43      -8.39828715269276E-29  9.87372586218234E-01 -9.62410304369634E-29 -8.08510917650883E+02 -7.48551191484987E-29 -3.87790534652871E-01
 N44      -1.80102183191406E-28  9.83330246116333E-01 -2.35080549755862E-28 -8.08116081320096E+02  1.02307131982800E-28  1.26855698785017E-01
 N45       8.61892168712176E-29 -2.98134970580121E-01 -1.00974195868290E-28 -8.08106921666457E+02 -2.56703350427486E-29  9.21760244775386E-01
 N46      -3.75671894952174E-29 -1.82260913571930E-01  1.43572684750224E-28 -8.07974536756819E+02  2.27949986729762E-28  1.26049018170619E+00
 N47       5.52506380320223E-29 -6.84224995418539E-01 -5.67979851759128E-29 -8.08958188481158E+02 -5.36786389848436E-29 -2.42648073029414E-01
 N48       1.75171802533774E-28 -7.34149992968661E-01 -1.43572684750224E-28 -8.08881408461495E+02 -1.17620393563617E-29  1.32284488609075E-01
 N64      -5.13609404981619E-31  5.40810736967727E-05 -5.15635643777276E-31  7.87139929267037E-02  6.95990958361039E-31  1.35889078506022E-03
 N65       1.57360513518590E-31  4.70921053823821E-03 -2.32074558298662E-30  7.27341681079455E-02 -1.27616932939959E-31 -7.20165062009343E-03
 N110     -3.33513288469538E-30  1.20009352633054E-02  7.32110169526401E-31  7.61371940836941E-02  1.43937584277021E-30 -9.76088018206201E-03
 N111      5.67258590994955E-31  1.73986216673750E-02  1.23240257141339E-30  7.40045228545544E-02 -2.74477366679716E-31  4.05083421454906E-04
 N121     -1.63066080978837E-30 -8.54850188853120E-03 -1.07986891981792E-30  6.63008083087016E-02 -9.29381568788366E-31  1.45957562827670E-02
 N122      3.17627977546989E-31 -2.79803764506099E-03 -1.28074341301751E-30  6.27655058805654E-02  4.07863813972607E-31  1.95340159682627E-02
 N123     -2.76267772201119E-32 -3.48384260907081E-03  5.18130181610006E-31  8.19547106280763E-02  1.49936225541008E-30 -2.36085082809756E-03
 N124     -4.09934188662823E-31 -1.39960531822904E-02  1.44059559840165E-31  7.33103550804719E-02 -6.07456360052963E-31  9.65995161199455E-03
 N248     -4.83007822612764E-29 -6.09085710601072E-01 -7.38373807286867E-29 -8.09637405501872E+02 -5.83480217434043E-30 -5.28306685613867E-02
 N249     -9.36388324148732E-29  4.51882059625272E-02 -1.11168706028069E-28 -8.10043077085861E+02 -1.93842182230345E-29 -1.09131681823006E-01
 N250     -5.70269920029430E-29 -1.49061465153858E-01 -1.00072640548037E-28 -8.09198050691709E+02  1.31303740632500E-28  3.19239285551676E-01
 N251      2.18097021418420E-29 -2.99654226708412E-01 -2.31399198864830E-29 -8.09588291443704E+02  1.80906632092114E-29  9.62847033409051E-02
 N302     -2.68754495942624E-31 -1.95796389163990E-03 -1.89058912990773E-30  7.14651294061655E-02  1.09173144456913E-30 -2.41271897968184E-03
 N303     -1.71258304862071E-31  3.81927942113450E-03 -1.00071319910361E-30  7.72839208224981E-02  6.24268625070099E-31 -6.88380300527059E-03
 N304      4.93604183842488E-31 -5.61350719771609E-05  2.74926499561278E-31  8.78622875706918E-02 -2.32358933892013E-31  1.77570780227786E-03
 N305     -1.51187392172736E-30 -2.98357899016085E-03 -9.83599935883481E-31  8.69774361974720E-02  3.96839154726221E-31  3.79637834666518E-03
 

 ------>
 CHAMP AUX NOEUDS DE NOM SYMBOLIQUE  PRAC_NOEU                                   
 NUMERO D'ORDRE: 1 FREQ:   1.04000000000000E+02                                  
 NOEUD        PRES_R       PRES_I  
 N1        3.28236609975081E-14  5.36051064198448E+02
 N2        3.28259029532671E-14  5.36087678114567E+02
 N3       -4.19371730985934E-15 -6.84886011669522E+01
 N4       -4.19400464216154E-15 -6.84932936595533E+01
 N18      -4.19432266780396E-15 -6.84984874124401E+01
 N19      -4.19377163892014E-15 -6.84894884278479E+01
 N28       3.28243322843435E-14  5.36062027144431E+02
 N29       3.28270262554291E-14  5.36106023031041E+02
 N41       3.28251774250828E-14  5.36075829340132E+02
 N42       3.28281214601564E-14  5.36123909081582E+02
 N43       3.28283176241095E-14  5.36127112682054E+02
 N44       3.28266720927988E-14  5.36100239116356E+02
 N45       3.28260323746888E-14  5.36089791726782E+02
 N46       3.28252084017504E-14  5.36076335227505E+02
 N47       3.28260098233547E-14  5.36089423435547E+02
 N48       3.28268202941497E-14  5.36102659428090E+02
 N64      -4.19432440719168E-15 -6.84985158187973E+01
 N65      -4.19415643701086E-15 -6.84957726575701E+01
 N110     -4.19420711801164E-15 -6.84966003411244E+01
 N111     -4.19408442976229E-15 -6.84945966899585E+01
 N121     -4.19405271163912E-15 -6.84940786936971E+01
 N122     -4.19398620978310E-15 -6.84929926359691E+01
 N123     -4.19433501534172E-15 -6.84986890630346E+01
 N124     -4.19407093308374E-15 -6.84943762724706E+01
 N248      3.28295876596592E-14  5.36147853936602E+02
 N249      3.28313854323689E-14  5.36177213793028E+02
 N250      3.28294593607795E-14  5.36145758656889E+02
 N251      3.28293268517729E-14  5.36143594620587E+02
 N302     -4.19404333724095E-15 -6.84939255981569E+01
 N303     -4.19443179676712E-15 -6.85002696236578E+01
 N304     -4.19452285948454E-15 -6.85017567906922E+01
 N305     -4.19447642478628E-15 -6.85009984545206E+01
 
   
   !----------------------------------------------------------------------------------------------------------------!
   ! <EXCEPTION> <MATRICE0_12>                                                                                      !
   !                                                                                                                !
   !  Une des charges renseignées pour l'assemblage des vecteurs est déjà présente dans le mot-clé                  !
   !  CHARGE définissant les conditions de Dirichlet. Il est interdit de renseigner plus d'une fois la même charge. !
   !----------------------------------------------------------------------------------------------------------------!
   

 --------------------------------------------------------------------------------
 ASTER 11.03.00 CONCEPT Pr_8 CALCULE LE 24/06/2016 A 16:23:25 DE TYPE ACOU_HARMO 

                    ENTITES TOPOLOGIQUES SELECTIONNEES 
 GROUP_MA : ENTREE SORTIE                                                        


 ======>

 ------>
 CHAMP AUX NOEUDS DE NOM SYMBOLIQUE  INTE_NOEU                                   
 NUMERO D'ORDRE: 1 FREQ:   1.16000000000000E+02                                  
 NOEUD        INTX_R       INTX_I       INTY_R       INTY_I       INTZ_R       INTZ_I  
 N1       -1.40990397880790E-28 -7.70470412964867E-01  0.00000000000000E+00 -9.38415305569881E+02  8.73540193015830E-29 -1.12396039495730E+00
 N2       -5.00556896266020E-29  9.58553053965936E-01 -1.38839519318898E-28 -9.39252914602310E+02 -8.82291618683125E-29 -1.15668982844614E+00
 N3        3.74352632940269E-31  1.40023009185449E-02 -8.21216528286717E-31  7.11069039876795E-02  4.50186124500516E-31 -1.75700986600439E-02
 N4        2.23022687560042E-31 -1.31860003485448E-02  1.93286329218703E-30  7.57031733505697E-02  1.73805547831226E-30 -1.31000895601931E-02
 N18       2.66512593116736E-31  9.30176688822018E-03  1.86930760402225E-30  8.01559808325501E-02 -1.31688469213015E-31  7.93267960487921E-03
 N19       3.22294746543482E-30 -1.09593004690108E-02  1.28421008691741E-30  6.52016906151493E-02 -2.69148709728116E-30  1.12972708418066E-02
 N28       1.89326617253043E-29 -8.63035937306220E-01 -1.26217744835362E-29 -9.38639244684037E+02  1.74917579781115E-28  1.13613246095020E+00
 N29       6.59057078829201E-29  4.90404986545789E-01  1.29373188456246E-28 -9.39245529835023E+02  8.36704856899480E-29  1.58792920309866E+00
 N41      -6.16574916115907E-29 -1.07608336560504E+00  1.57772181044202E-29 -9.38444145710040E+02  1.24233266620665E-28 -1.38545369110196E+00
 N42       1.06881408193714E-28  8.38194281444617E-02  2.10362908058936E-29 -9.40360394439566E+02 -1.35973735561650E-28 -1.35653203312211E+00
 N43       2.00265899337162E-29  1.48422870584390E+00 -9.46633086265214E-30 -9.39506784049310E+02 -8.87799778324073E-29 -5.82918369279370E-01
 N44       1.29102017520076E-28  1.47773466756323E+00  5.67979851759128E-29 -9.38915000878632E+02 -7.15132455089980E-29  1.91424100371997E-01
 N45      -1.23101590185343E-28 -4.49330802804230E-01  2.24036497082767E-28 -9.38903574436478E+02  1.74446112130729E-28  1.38669259883433E+00
 N46      -1.19275922943813E-28 -2.75257241379889E-01  1.41994962939782E-28 -9.38706140523099E+02  8.47039396981061E-29  1.89669865711775E+00
 N47      -1.15184697476236E-28 -1.03068249887449E+00 -2.88497702480827E-29 -9.40183855809019E+02  1.25690810402578E-28 -3.63884000967203E-01
 N48       1.15447944586348E-29 -1.10503431773564E+00  3.15544362088405E-30 -9.40067644659523E+02  2.20380311676343E-29  1.99056380320629E-01
 N64      -2.76114156360317E-31  5.16362538504239E-05  6.01660514626572E-31  7.53128934146328E-02  1.23886246143519E-30  1.30072163651963E-03
 N65       4.05709179847324E-31  4.50561246668144E-03  2.29763442365397E-31  6.95900716840355E-02  1.55092731009074E-30 -6.89000281833724E-03
 N110     -1.46662775148329E-30  1.14818912606395E-02  8.35083223886305E-31  7.28461559097761E-02  9.15009316578376E-31 -9.33911114005841E-03
 N111      2.70424638316273E-31  1.66462661427887E-02  3.48208133945212E-31  7.08056242588294E-02  5.39393544428487E-31  3.87646387069359E-04
 N121      2.05683299529481E-31 -8.17864158720929E-03  3.32800694390114E-31  6.34347033243084E-02 -2.05246354173348E-30  1.39646571953412E-02
 N122     -7.86152566236717E-31 -2.67695979625186E-03  2.05824133156664E-30  6.00523321191767E-02 -1.08376892795531E-30  1.86892638229056E-02
 N123     -4.99734111480493E-31 -3.33242232408302E-03 -5.35408524539652E-31  7.84133789543480E-02  1.42915437082578E-30 -2.25923394807960E-03
 N124      7.18564462250878E-31 -1.33905465910476E-02 -4.74356545302576E-31  7.01408355382031E-02 -9.99124306899488E-31  9.24243147939526E-03
 N248     -4.50915666763450E-29 -9.18381192912358E-01 -1.26217744835362E-29 -9.41199373642015E+02  7.59473573533844E-29 -7.89188806754498E-02
 N249      1.06635126198364E-28  6.69549154559247E-02 -1.65053974015473E-29 -9.41807169309972E+02 -8.53086224412608E-29 -1.63993290403682E-01
 N250      7.82106393773197E-30 -2.25555451950192E-01  1.08186638430310E-29 -9.40538455867013E+02 -4.56377163873174E-29  4.81707479302552E-01
 N251     -1.07212595921776E-28 -4.52660494292607E-01  4.83834688535554E-29 -9.41126531892719E+02  5.05683761901519E-29  1.45696196593666E-01
 N302     -2.10287475802781E-31 -1.87343206947051E-03 -5.52741894039137E-32  6.83762935572118E-02  1.40101171951342E-30 -2.30809324932343E-03
 N303      1.82280241439638E-31  3.65393543342855E-03  5.69433286890493E-32  7.39446667761558E-02  7.32502377134868E-31 -6.58615835005987E-03
 N304     -5.66017457039583E-32 -5.36659384343229E-05  8.71338855089395E-31  8.40662239648115E-02 -4.76141039766672E-33  1.69880203293354E-03
 N305     -7.60464615813299E-31 -2.85425401557290E-03 -4.77162900364398E-31  8.32190732383076E-02  2.43469357206235E-31  3.63194232641828E-03
 

 ------>
 CHAMP AUX NOEUDS DE NOM SYMBOLIQUE  PRAC_NOEU                                   
 NUMERO D'ORDRE: 1 FREQ:   1.16000000000000E+02                                  
 NOEUD        PRES_R       PRES_I  
 N1        3.80803860206817E-14  6.21899898765828E+02
 N2        3.80836386084071E-14  6.21953017554488E+02
 N3       -3.88408218872132E-15 -6.34318758914908E+01
 N4       -3.88441326205470E-15 -6.34372827293417E+01
 N18      -3.88477969260044E-15 -6.34432669942905E+01
 N19      -3.88414480145369E-15 -6.34328984350098E+01
 N28       3.80813518988653E-14  6.21915672753630E+02
 N29       3.80852557678466E-14  6.21979427772368E+02
 N41       3.80825816919353E-14  6.21935756798611E+02
 N42       3.80868429460038E-14  6.22005348358748E+02
 N43       3.80871290803862E-14  6.22010021287835E+02
 N44       3.80847484992166E-14  6.21971143446954E+02
 N45       3.80838112991278E-14  6.21955837807982E+02
 N46       3.80826242629845E-14  6.21936452036605E+02
 N47       3.80837780167543E-14  6.21955294265575E+02
 N48       3.80849492947126E-14  6.21974422686260E+02
 N64      -3.88478169666343E-15 -6.34432997231230E+01
 N65      -3.88458815826743E-15 -6.34401390012538E+01
 N110     -3.88464655242873E-15 -6.34410926502789E+01
 N111     -3.88450519776633E-15 -6.34387841534535E+01
 N121     -3.88446865171979E-15 -6.34381873112199E+01
 N122     -3.88439202801683E-15 -6.34369359511868E+01
 N123     -3.88479393216885E-15 -6.34434995440905E+01
 N124     -3.88448965716811E-15 -6.34385303562242E+01
 N248      3.80889593400028E-14  6.22039911695712E+02
 N249      3.80915629141257E-14  6.22082431287888E+02
 N250      3.80887744314115E-14  6.22036891909250E+02
 N251      3.80885767502953E-14  6.22033663531625E+02
 N302     -3.88445782933443E-15 -6.34380105682543E+01
 N303     -3.88490542352502E-15 -6.34453203361140E+01
 N304     -3.88501035803428E-15 -6.34470340467010E+01
 N305     -3.88495685396889E-15 -6.34461602590029E+01
 
   
   !----------------------------------------------------------------------------------------------------------------!
   ! <EXCEPTION> <MATRICE0_12>                                                                                      !
   !                                                                                                                !
   !  Une des charges renseignées pour l'assemblage des vecteurs est déjà présente dans le mot-clé                  !
   !  CHARGE définissant les conditions de Dirichlet. Il est interdit de renseigner plus d'une fois la même charge. !
   !----------------------------------------------------------------------------------------------------------------!
   

 --------------------------------------------------------------------------------
 ASTER 11.03.00 CONCEPT Pr_9 CALCULE LE 24/06/2016 A 16:23:25 DE TYPE ACOU_HARMO 

                    ENTITES TOPOLOGIQUES SELECTIONNEES 
 GROUP_MA : ENTREE SORTIE                                                        


 ======>

 ------>
 CHAMP AUX NOEUDS DE NOM SYMBOLIQUE  INTE_NOEU                                   
 NUMERO D'ORDRE: 1 FREQ:   1.28000000000000E+02                                  
 NOEUD        INTX_R       INTX_I       INTY_R       INTY_I       INTZ_R       INTZ_I  
 N1       -1.91150858096366E-28 -1.11328936170816E+00 -2.01948391736579E-28 -1.07408463823712E+03  1.21583187017188E-28 -1.62054720303827E+00
 N2        1.95366333558641E-29  1.38225545094175E+00  3.53409685539013E-28 -1.07528856010381E+03 -3.31346232096113E-28 -1.66912377087006E+00
 N3        7.22753359879920E-31  1.36401692949539E-02  3.47437761967457E-31  6.92686663476232E-02 -8.76779607182289E-31 -1.71157335999454E-02
 N4        3.81815611474770E-31 -1.28452364383385E-02  2.78874655947272E-31  7.37482677945078E-02  1.71186283106859E-30 -1.27620192930104E-02
 N18       3.01083035618487E-31  9.06188632986478E-03 -7.49571934355512E-31  7.80877666588431E-02 -1.15036999284465E-30  7.72796236325120E-03
 N19       8.36816560836254E-32 -1.06758145102067E-02  1.09469858038970E-30  6.35163576397589E-02  1.19234322857014E-30  1.10054258174397E-02
 N28      -1.52866452289859E-28 -1.24613074522986E+00 -3.28166136571941E-28 -1.07440733661020E+03 -1.25083757284107E-28  1.63970855846828E+00
 N29      -1.23961325312518E-28  7.05602229887846E-01  7.88860905221012E-29 -1.07527682003191E+03  2.39608796241105E-29  2.29484667499027E+00
 N41      -1.17937786818452E-28 -1.55496954066876E+00 -3.15544362088405E-29 -1.07412333986125E+03  6.00828512890597E-29 -1.99877053289932E+00
 N42      -1.20798434762515E-28  1.19396107422797E-01  7.99379050623959E-29 -1.07688395316270E+03 -1.67787016755016E-28 -1.95773890469825E+00
 N43      -1.91985941320253E-28  2.14131623926578E+00  8.20415341429852E-29 -1.07565093146753E+03 -3.77805825330555E-29 -8.41008761506475E-01
 N44      -1.95569711760768E-28  2.13143240109288E+00 -5.67979851759128E-29 -1.07479929795999E+03  1.35456045592599E-28  2.77005197341497E-01
 N45      -5.93517682821703E-29 -6.49668450418691E-01 -3.69186903643434E-28 -1.07478561580669E+03 -2.16563888898545E-28  2.00185710403947E+00
 N46      -9.16226504303228E-29 -3.98652036423723E-01 -1.13595970351826E-28 -1.07450268552745E+03  6.50317208741572E-29  2.73862200277844E+00
 N47      -1.37017039325809E-28 -1.48955309519506E+00 -5.40933192151551E-30 -1.07663350983392E+03 -2.13062878419068E-31 -5.23978254241860E-01
 N48       1.92592994438724E-30 -1.59599047189851E+00 -2.20881053461883E-28 -1.07646484778010E+03 -1.41112116653275E-28  2.87369768107495E-01
 N64      -1.63808366478236E-31  5.01872322120278E-05  1.43802769180914E-32  7.33696031177224E-02  6.49018329488244E-31  1.26775001872836E-03
 N65      -1.81867972060917E-31  4.38922395386404E-03  3.65926689433575E-31  6.77929610937575E-02 -3.65156317455820E-31 -6.71170551822208E-03
 N110      1.22553342127841E-30  1.11850811400417E-02 -2.91457398250602E-31  7.09651342540191E-02 -1.36708927219087E-31 -9.09811497090563E-03
 N111      1.39950106821329E-30  1.62161067493541E-02 -9.03646329906491E-31  6.89772443691986E-02  1.88471052967904E-31  3.77716342277873E-04
 N121     -3.43236827276263E-32 -7.96707562288547E-03  1.18444691579815E-31  6.17964384746128E-02  1.03244289493739E-30  1.36038531393044E-02
 N122     -7.85556731660172E-31 -2.60769269901608E-03 -8.57038825252320E-31  5.85015329512149E-02  4.11330487872504E-31  1.82062497018726E-02
 N123      5.96474260419187E-31 -3.24547551198301E-03  2.39365578802414E-31  7.63898647213718E-02 -3.70464661865037E-31 -2.20136120941809E-03
 N124      1.19070618811741E-31 -1.30442102686146E-02  1.83155937711226E-31  6.83289454572324E-02  6.57765261319003E-31  9.00381087625651E-03
 N248     -1.11014145705578E-28 -1.32833135230208E+00  3.78653234506086E-29 -1.07809190932703E+03 -5.52186841029164E-29 -1.13303120005374E-01
 N249     -1.93094565855625E-28  9.54173994019237E-02  9.70905729502784E-30 -1.07896633296573E+03 -4.43800629695672E-29 -2.36572979737239E-01
 N250     -1.27016400470014E-28 -3.27199408921891E-01  1.89326617253043E-29 -1.07713781228204E+03  7.78129623570886E-29  6.97094970958582E-01
 N251     -7.38577201538411E-29 -6.55723816676228E-01 -1.09388712190647E-28 -1.07798799308681E+03 -4.95329882273413E-29  2.11285684612477E-01
 N302     -5.18106752328317E-31 -1.82516608258589E-03  5.62082654269415E-31  6.66109638838973E-02 -1.87964744041118E-31 -2.24813063229712E-03
 N303     -6.75360687692432E-32  3.55930837585218E-03  4.83729404365261E-31  7.20367395657588E-02  3.32905015595435E-31 -6.41599191074103E-03
 N304      1.91197447545427E-32 -5.22340137641866E-05 -4.81843597961382E-31  8.18974172721608E-02 -5.55358074266327E-32  1.65477423156347E-03
 N305      3.25225943135627E-31 -2.78016363482088E-03 -1.94794057232309E-31  8.10715504259693E-02 -4.40423207304750E-32  3.53779578303158E-03
 

 ------>
 CHAMP AUX NOEUDS DE NOM SYMBOLIQUE  PRAC_NOEU                                   
 NUMERO D'ORDRE: 1 FREQ:   1.28000000000000E+02                                  
 NOEUD        PRES_R       PRES_I  
 N1        4.35181412353152E-14  7.10705180720093E+02
 N2        4.35226867374921E-14  7.10779414404125E+02
 N3       -3.64945451569824E-15 -5.96001152044677E+01
 N4       -3.64983327998771E-15 -5.96063008947376E+01
 N18      -3.65025248365191E-15 -5.96131470101152E+01
 N19      -3.64952616426489E-15 -5.96012853143589E+01
 N28       4.35194821661355E-14  7.10727079782276E+02
 N29       4.35249325699937E-14  7.10816091632256E+02
[...]
 * ASSEMBLAGE               :       0.06 :       0.01 :       0.07 :       0.06 *
 * DYNA_VIBRA               :       0.03 :       0.00 :       0.03 :       0.03 *
 * CALC_CHAMP               :       0.06 :       0.00 :       0.06 :       0.06 *
 * IMPR_RESU                :       0.00 :       0.00 :       0.00 :       0.00 *
 * DETRUIRE                 :       0.02 :       0.00 :       0.02 :       0.02 *
 * ASSEMBLAGE               :       0.05 :       0.00 :       0.05 :       0.06 *
 * DYNA_VIBRA               :       0.03 :       0.00 :       0.03 :       0.03 *
 * CALC_CHAMP               :       0.06 :       0.00 :       0.06 :       0.06 *
 * IMPR_RESU                :       0.01 :       0.00 :       0.01 :       0.01 *
 * DETRUIRE                 :       0.01 :       0.00 :       0.01 :       0.01 *
 * ASSEMBLAGE               :       0.06 :       0.00 :       0.06 :       0.06 *
 * DYNA_VIBRA               :       0.03 :       0.00 :       0.03 :       0.03 *
 * CALC_CHAMP               :       0.05 :       0.01 :       0.06 :       0.06 *
 * IMPR_RESU                :       0.01 :       0.00 :       0.01 :       0.00 *
 * DETRUIRE                 :       0.01 :       0.00 :       0.01 :       0.02 *
 * ASSEMBLAGE               :       0.06 :       0.00 :       0.06 :       0.06 *
 * DYNA_VIBRA               :       0.03 :       0.00 :       0.03 :       0.03 *
 * CALC_CHAMP               :       0.06 :       0.01 :       0.07 :       0.06 *
 * IMPR_RESU                :       0.00 :       0.00 :       0.00 :       0.01 *
 * DETRUIRE                 :       0.02 :       0.00 :       0.02 :       0.01 *
 * ASSEMBLAGE               :       0.06 :       0.00 :       0.06 :       0.06 *
 * DYNA_VIBRA               :       0.03 :       0.00 :       0.03 :       0.03 *
 * CALC_CHAMP               :       0.05 :       0.00 :       0.05 :       0.06 *
 * IMPR_RESU                :       0.01 :       0.00 :       0.01 :       0.01 *
 * DETRUIRE                 :       0.01 :       0.00 :       0.01 :       0.01 *
 * ASSEMBLAGE               :       0.06 :       0.00 :       0.06 :       0.06 *
 * DYNA_VIBRA               :       0.03 :       0.00 :       0.03 :       0.03 *
 * CALC_CHAMP               :       0.05 :       0.01 :       0.06 :       0.07 *
 * IMPR_RESU                :       0.01 :       0.00 :       0.01 :       0.00 *
 * DETRUIRE                 :       0.01 :       0.00 :       0.01 :       0.02 *
 * ASSEMBLAGE               :       0.06 :       0.01 :       0.07 :       0.06 *
 * DYNA_VIBRA               :       0.03 :       0.00 :       0.03 :       0.02 *
 * CALC_CHAMP               :       0.06 :       0.00 :       0.06 :       0.06 *
 * IMPR_RESU                :       0.00 :       0.00 :       0.00 :       0.01 *
 * DETRUIRE                 :       0.02 :       0.00 :       0.02 :       0.01 *
 * ASSEMBLAGE               :       0.05 :       0.00 :       0.05 :       0.06 *
 * DYNA_VIBRA               :       0.03 :       0.01 :       0.04 :       0.04 *
 * CALC_CHAMP               :       0.06 :       0.00 :       0.06 :       0.06 *
 * IMPR_RESU                :       0.00 :       0.00 :       0.00 :       0.00 *
 * DETRUIRE                 :       0.02 :       0.00 :       0.02 :       0.02 *
 * ASSEMBLAGE               :       0.06 :       0.00 :       0.06 :       0.06 *
 * DYNA_VIBRA               :       0.03 :       0.00 :       0.03 :       0.03 *
 * CALC_CHAMP               :       0.06 :       0.00 :       0.06 :       0.06 *
 * IMPR_RESU                :       0.00 :       0.00 :       0.00 :       0.00 *
 * DETRUIRE                 :       0.02 :       0.00 :       0.02 :       0.01 *
 * ASSEMBLAGE               :       0.06 :       0.00 :       0.06 :       0.06 *
 * DYNA_VIBRA               :       0.03 :       0.00 :       0.03 :       0.03 *
 * CALC_CHAMP               :       0.06 :       0.00 :       0.06 :       0.06 *
 * IMPR_RESU                :       0.00 :       0.00 :       0.00 :       0.00 *
 * DETRUIRE                 :       0.02 :       0.00 :       0.02 :       0.02 *
 * ASSEMBLAGE               :       0.06 :       0.00 :       0.06 :       0.06 *
 * DYNA_VIBRA               :       0.02 :       0.01 :       0.03 :       0.03 *
 * CALC_CHAMP               :       0.05 :       0.01 :       0.06 :       0.06 *
 * IMPR_RESU                :       0.01 :       0.00 :       0.01 :       0.01 *
 * DETRUIRE                 :       0.01 :       0.00 :       0.01 :       0.01 *
 * ASSEMBLAGE               :       0.06 :       0.00 :       0.06 :       0.06 *
 * DYNA_VIBRA               :       0.03 :       0.01 :       0.04 :       0.03 *
 * CALC_CHAMP               :       0.05 :       0.00 :       0.05 :       0.06 *
 * IMPR_RESU                :       0.01 :       0.00 :       0.01 :       0.01 *
 * DETRUIRE                 :       0.01 :       0.00 :       0.01 :       0.01 *
 * ASSEMBLAGE               :       0.06 :       0.00 :       0.06 :       0.06 *
 * DYNA_VIBRA               :       0.03 :       0.00 :       0.03 :       0.03 *
 * CALC_CHAMP               :       0.05 :       0.02 :       0.07 :       0.07 *
 * IMPR_RESU                :       0.00 :       0.00 :       0.00 :       0.00 *
 * DETRUIRE                 :       0.02 :       0.00 :       0.02 :       0.02 *
 * ASSEMBLAGE               :       0.05 :       0.00 :       0.05 :       0.06 *
 * DYNA_VIBRA               :       0.03 :       0.00 :       0.03 :       0.02 *
 * CALC_CHAMP               :       0.06 :       0.00 :       0.06 :       0.06 *
 * IMPR_RESU                :       0.01 :       0.00 :       0.01 :       0.00 *
 * DETRUIRE                 :       0.01 :       0.00 :       0.01 :       0.02 *
 * ASSEMBLAGE               :       0.06 :       0.00 :       0.06 :       0.06 *
 * DYNA_VIBRA               :       0.02 :       0.00 :       0.02 :       0.03 *
 * CALC_CHAMP               :       0.07 :       0.00 :       0.07 :       0.06 *
 * IMPR_RESU                :       0.00 :       0.00 :       0.00 :       0.00 *
 * DETRUIRE                 :       0.02 :       0.00 :       0.02 :       0.02 *
 * ASSEMBLAGE               :       0.06 :       0.00 :       0.06 :       0.06 *
 * DYNA_VIBRA               :       0.03 :       0.00 :       0.03 :       0.03 *
 * CALC_CHAMP               :       0.06 :       0.00 :       0.06 :       0.06 *
 * IMPR_RESU                :       0.00 :       0.00 :       0.00 :       0.01 *
 * DETRUIRE                 :       0.02 :       0.00 :       0.02 :       0.01 *
 * ASSEMBLAGE               :       0.06 :       0.00 :       0.06 :       0.06 *
 * DYNA_VIBRA               :       0.03 :       0.00 :       0.03 :       0.03 *
 * CALC_CHAMP               :       0.05 :       0.01 :       0.06 :       0.06 *
 * IMPR_RESU                :       0.01 :       0.00 :       0.01 :       0.01 *
 * DETRUIRE                 :       0.01 :       0.00 :       0.01 :       0.01 *
 * ASSEMBLAGE               :       0.06 :       0.00 :       0.06 :       0.06 *
 * DYNA_VIBRA               :       0.03 :       0.00 :       0.03 :       0.03 *
 * CALC_CHAMP               :       0.05 :       0.01 :       0.06 :       0.06 *
 * IMPR_RESU                :       0.01 :       0.00 :       0.01 :       0.00 *
 * DETRUIRE                 :       0.01 :       0.00 :       0.01 :       0.01 *
 * ASSEMBLAGE               :       0.06 :       0.01 :       0.07 :       0.06 *
 * DYNA_VIBRA               :       0.02 :       0.00 :       0.02 :       0.02 *
 * CALC_CHAMP               :       0.06 :       0.00 :       0.06 :       0.06 *
 * IMPR_RESU                :       0.00 :       0.00 :       0.00 :       0.01 *
 * DETRUIRE                 :       0.02 :       0.00 :       0.02 :       0.01 *
 * ASSEMBLAGE               :       0.06 :       0.00 :       0.06 :       0.07 *
 * DYNA_VIBRA               :       0.03 :       0.00 :       0.03 :       0.03 *
 * CALC_CHAMP               :       0.06 :       0.01 :       0.07 :       0.06 *
 * IMPR_RESU                :       0.00 :       0.00 :       0.00 :       0.00 *
 * DETRUIRE                 :       0.02 :       0.00 :       0.02 :       0.02 *
 * ASSEMBLAGE               :       0.06 :       0.00 :       0.06 :       0.06 *
 * DYNA_VIBRA               :       0.03 :       0.00 :       0.03 :       0.03 *
 * CALC_CHAMP               :       0.06 :       0.00 :       0.06 :       0.06 *
 * IMPR_RESU                :       0.00 :       0.00 :       0.00 :       0.01 *
 * DETRUIRE                 :       0.02 :       0.00 :       0.02 :       0.01 *
 * ASSEMBLAGE               :       0.06 :       0.00 :       0.06 :       0.06 *
 * DYNA_VIBRA               :       0.03 :       0.00 :       0.03 :       0.03 *
 * CALC_CHAMP               :       0.06 :       0.00 :       0.06 :       0.06 *
 * IMPR_RESU                :       0.01 :       0.00 :       0.01 :       0.01 *
 * DETRUIRE                 :       0.01 :       0.00 :       0.01 :       0.01 *
 * ASSEMBLAGE               :       0.06 :       0.00 :       0.06 :       0.06 *
 * DYNA_VIBRA               :       0.03 :       0.00 :       0.03 :       0.03 *
 * CALC_CHAMP               :       0.06 :       0.00 :       0.06 :       0.06 *
 * IMPR_RESU                :       0.01 :       0.00 :       0.01 :       0.00 *
 * DETRUIRE                 :       0.01 :       0.00 :       0.01 :       0.02 *
 * ASSEMBLAGE               :       0.06 :       0.00 :       0.06 :       0.06 *
 * DYNA_VIBRA               :       0.02 :       0.00 :       0.02 :       0.02 *
 * CALC_CHAMP               :       0.05 :       0.00 :       0.05 :       0.06 *
 * IMPR_RESU                :       0.00 :       0.00 :       0.00 :       0.00 *
 * DETRUIRE                 :       0.02 :       0.00 :       0.02 :       0.02 *
 * ASSEMBLAGE               :       0.06 :       0.00 :       0.06 :       0.06 *
 * DYNA_VIBRA               :       0.03 :       0.00 :       0.03 :       0.03 *
 * CALC_CHAMP               :       0.05 :       0.01 :       0.06 :       0.06 *
 * IMPR_RESU                :       0.01 :       0.00 :       0.01 :       0.00 *
 * DETRUIRE                 :       0.01 :       0.00 :       0.01 :       0.02 *
 * ASSEMBLAGE               :       0.06 :       0.01 :       0.07 :       0.06 *
 * DYNA_VIBRA               :       0.03 :       0.00 :       0.03 :       0.03 *
 * CALC_CHAMP               :       0.05 :       0.00 :       0.05 :       0.06 *
 * IMPR_RESU                :       0.01 :       0.00 :       0.01 :       0.01 *
 * DETRUIRE                 :       0.01 :       0.00 :       0.01 :       0.01 *
 * ASSEMBLAGE               :       0.06 :       0.00 :       0.06 :       0.07 *
 * DYNA_VIBRA               :       0.03 :       0.00 :       0.03 :       0.02 *
 * CALC_CHAMP               :       0.07 :       0.00 :       0.07 :       0.06 *
 * IMPR_RESU                :       0.00 :       0.00 :       0.00 :       0.01 *
 * DETRUIRE                 :       0.02 :       0.00 :       0.02 :       0.02 *
 * ASSEMBLAGE               :       0.06 :       0.00 :       0.06 :       0.06 *
 * DYNA_VIBRA               :       0.02 :       0.01 :       0.03 :       0.03 *
 * CALC_CHAMP               :       0.06 :       0.01 :       0.07 :       0.06 *
 * IMPR_RESU                :       0.00 :       0.00 :       0.00 :       0.00 *
 * DETRUIRE                 :       0.02 :       0.00 :       0.02 :       0.02 *
 * ASSEMBLAGE               :       0.06 :       0.00 :       0.06 :       0.06 *
 * DYNA_VIBRA               :       0.02 :       0.00 :       0.02 :       0.03 *
 * CALC_CHAMP               :       0.07 :       0.00 :       0.07 :       0.06 *
 * IMPR_RESU                :       0.00 :       0.00 :       0.00 :       0.01 *
 * DETRUIRE                 :       0.02 :       0.00 :       0.02 :       0.01 *
 * ASSEMBLAGE               :       0.06 :       0.00 :       0.06 :       0.07 *
 * DYNA_VIBRA               :       0.03 :       0.00 :       0.03 :       0.02 *
 * CALC_CHAMP               :       0.06 :       0.00 :       0.06 :       0.06 *
 * IMPR_RESU                :       0.00 :       0.00 :       0.00 :       0.01 *
 * DETRUIRE                 :       0.02 :       0.00 :       0.02 :       0.01 *
 * ASSEMBLAGE               :       0.06 :       0.00 :       0.06 :       0.07 *
 * DYNA_VIBRA               :       0.03 :       0.00 :       0.03 :       0.03 *
 * CALC_CHAMP               :       0.06 :       0.00 :       0.06 :       0.06 *
 * IMPR_RESU                :       0.00 :       0.00 :       0.00 :       0.00 *
 * DETRUIRE                 :       0.01 :       0.01 :       0.02 :       0.02 *
 * ASSEMBLAGE               :       0.06 :       0.00 :       0.06 :       0.06 *
 * DYNA_VIBRA               :       0.03 :       0.00 :       0.03 :       0.03 *
 * CALC_CHAMP               :       0.05 :       0.01 :       0.06 :       0.06 *
 * IMPR_RESU                :       0.01 :       0.00 :       0.01 :       0.01 *
 * DETRUIRE                 :       0.01 :       0.00 :       0.01 :       0.01 *
 * ASSEMBLAGE               :       0.06 :       0.00 :       0.06 :       0.06 *
 * DYNA_VIBRA               :       0.03 :       0.00 :       0.03 :       0.03 *
 * CALC_CHAMP               :       0.06 :       0.00 :       0.06 :       0.06 *
 * IMPR_RESU                :       0.01 :       0.00 :       0.01 :       0.01 *
 * DETRUIRE                 :       0.01 :       0.00 :       0.01 :       0.01 *
 * ASSEMBLAGE               :       0.07 :       0.00 :       0.07 :       0.06 *
 * DYNA_VIBRA               :       0.02 :       0.01 :       0.03 :       0.03 *
 * CALC_CHAMP               :       0.06 :       0.00 :       0.06 :       0.06 *
 * IMPR_RESU                :       0.01 :       0.00 :       0.01 :       0.00 *
 * DETRUIRE                 :       0.01 :       0.00 :       0.01 :       0.02 *
 * ASSEMBLAGE               :       0.07 :       0.00 :       0.07 :       0.06 *
 * DYNA_VIBRA               :       0.02 :       0.00 :       0.02 :       0.03 *
 * CALC_CHAMP               :       0.06 :       0.01 :       0.07 :       0.06 *
 * IMPR_RESU                :       0.00 :       0.00 :       0.00 :       0.01 *
 * DETRUIRE                 :       0.02 :       0.00 :       0.02 :       0.01 *
 * ASSEMBLAGE               :       0.06 :       0.00 :       0.06 :       0.06 *
 * DYNA_VIBRA               :       0.02 :       0.00 :       0.02 :       0.02 *
 * CALC_CHAMP               :       0.06 :       0.01 :       0.07 :       0.07 *
 * IMPR_RESU                :       0.00 :       0.00 :       0.00 :       0.00 *
 * DETRUIRE                 :       0.02 :       0.00 :       0.02 :       0.02 *
 * ASSEMBLAGE               :       0.06 :       0.00 :       0.06 :       0.06 *
 * DYNA_VIBRA               :       0.03 :       0.00 :       0.03 :       0.03 *
 * CALC_CHAMP               :       0.06 :       0.00 :       0.06 :       0.06 *
 * IMPR_RESU                :       0.01 :       0.00 :       0.01 :       0.01 *
 * DETRUIRE                 :       0.01 :       0.00 :       0.01 :       0.01 *
 * ASSEMBLAGE               :       0.06 :       0.00 :       0.06 :       0.06 *
 * DYNA_VIBRA               :       0.03 :       0.01 :       0.04 :       0.04 *
 * CALC_CHAMP               :       0.06 :       0.00 :       0.06 :       0.06 *
 * IMPR_RESU                :       0.00 :       0.00 :       0.00 :       0.00 *
 * DETRUIRE                 :       0.02 :       0.00 :       0.02 :       0.02 *
 * ASSEMBLAGE               :       0.05 :       0.00 :       0.05 :       0.06 *
 * DYNA_VIBRA               :       0.03 :       0.00 :       0.03 :       0.03 *
 * CALC_CHAMP               :       0.05 :       0.01 :       0.06 :       0.06 *
 * IMPR_RESU                :       0.00 :       0.00 :       0.00 :       0.01 *
 * DETRUIRE                 :       0.02 :       0.00 :       0.02 :       0.01 *
 * ASSEMBLAGE               :       0.06 :       0.01 :       0.07 :       0.06 *
 * DYNA_VIBRA               :       0.03 :       0.00 :       0.03 :       0.02 *
 * CALC_CHAMP               :       0.06 :       0.00 :       0.06 :       0.06 *
 * IMPR_RESU                :       0.00 :       0.00 :       0.00 :       0.01 *
 * DETRUIRE                 :       0.02 :       0.00 :       0.02 :       0.02 *
 * ASSEMBLAGE               :       0.06 :       0.00 :       0.06 :       0.06 *
 * DYNA_VIBRA               :       0.03 :       0.00 :       0.03 :       0.03 *
 * CALC_CHAMP               :       0.05 :       0.01 :       0.06 :       0.06 *
 * IMPR_RESU                :       0.01 :       0.00 :       0.01 :       0.00 *
 * DETRUIRE                 :       0.01 :       0.00 :       0.01 :       0.02 *
 * ASSEMBLAGE               :       0.06 :       0.00 :       0.06 :       0.06 *
 * DYNA_VIBRA               :       0.03 :       0.01 :       0.04 :       0.03 *
 * CALC_CHAMP               :       0.06 :       0.00 :       0.06 :       0.07 *
 * IMPR_RESU                :       0.00 :       0.00 :       0.00 :       0.00 *
 * DETRUIRE                 :       0.02 :       0.00 :       0.02 :       0.02 *
 * ASSEMBLAGE               :       0.06 :       0.00 :       0.06 :       0.06 *
 * DYNA_VIBRA               :       0.03 :       0.00 :       0.03 :       0.03 *
 * CALC_CHAMP               :       0.06 :       0.00 :       0.06 :       0.06 *
 * IMPR_RESU                :       0.00 :       0.00 :       0.00 :       0.01 *
 * DETRUIRE                 :       0.01 :       0.00 :       0.01 :       0.01 *
 * ASSEMBLAGE               :       0.06 :       0.00 :       0.06 :       0.06 *
 * DYNA_VIBRA               :       0.03 :       0.00 :       0.03 :       0.03 *
 * CALC_CHAMP               :       0.06 :       0.00 :       0.06 :       0.06 *
 * IMPR_RESU                :       0.01 :       0.00 :       0.01 :       0.01 *
 * DETRUIRE                 :       0.01 :       0.00 :       0.01 :       0.01 *
 * ASSEMBLAGE               :       0.06 :       0.00 :       0.06 :       0.06 *
 * DYNA_VIBRA               :       0.03 :       0.00 :       0.03 :       0.03 *
 * CALC_CHAMP               :       0.06 :       0.01 :       0.07 :       0.06 *
 * IMPR_RESU                :       0.01 :       0.00 :       0.01 :       0.01 *
 * DETRUIRE                 :       0.01 :       0.00 :       0.01 :       0.01 *
 * ASSEMBLAGE               :       0.06 :       0.00 :       0.06 :       0.06 *
 * DYNA_VIBRA               :       0.03 :       0.00 :       0.03 :       0.04 *
 * CALC_CHAMP               :       0.06 :       0.00 :       0.06 :       0.06 *
 * IMPR_RESU                :       0.01 :       0.00 :       0.01 :       0.00 *
 * DETRUIRE                 :       0.01 :       0.00 :       0.01 :       0.02 *
 * ASSEMBLAGE               :       0.07 :       0.00 :       0.07 :       0.06 *
 * DYNA_VIBRA               :       0.02 :       0.00 :       0.02 :       0.03 *
 * CALC_CHAMP               :       0.06 :       0.01 :       0.07 :       0.06 *
 * IMPR_RESU                :       0.00 :       0.00 :       0.00 :       0.01 *
 * DETRUIRE                 :       0.02 :       0.00 :       0.02 :       0.01 *
 * ASSEMBLAGE               :       0.06 :       0.00 :       0.06 :       0.06 *
 * DYNA_VIBRA               :       0.03 :       0.00 :       0.03 :       0.03 *
 *  . part Superviseur      :       4.82 :       0.10 :       4.92 :       5.24 *
 *  . part Fortran          :      13.63 :       0.78 :      14.41 :      14.15 *
 * > 500 commandes...       :      26.96 :       1.44 :      28.40 :      29.68 *
 ********************************************************************************
 * TOTAL_JOB                :      45.43 :       2.32 :      47.75 :      49.08 *
 ********************************************************************************

