                                                                                
                                                                                
        -- CODE_ASTER -- VERSION : DÉVELOPPEMENT STABILISÉE (testing) --        
                                                                                
                          Version 11.3.0 du 12/12/2012                          
                         Copyright EDF R&D 1991 - 2016                          
                                                                                
                    Exécution du : Fri Jun 24 16:25:03 2016                     
                   Nom de la machine : liding-Precision-T3600                   
                              Architecture : 64bit                              
                          Type de processeur : x86_64                           
                Système d'exploitation : Linux 3.13.0-85-generic                
                        Langue des messages : en (UTF-8)                        
                                                                                
   
   !------------------------------------------------------------------------------------!
   ! <A> <SUPERVIS2_2>                                                                  !
   !                                                                                    !
   !     Vous utilisez une vieille version de Code_Aster.                               !
   !                                                                                    !
   !     En mettant à jour votre version, vous bénéficierez des dernières améliorations !
   !     apportées au code depuis 15 mois.                                              !
   !     Si vous avez des développements privés, vous risquez d'avoir un travail        !
   !     important de portage si vous ne suivez pas les mises à jour.                   !
   !                                                                                    !
   !                                                                                    !
   ! Ceci est une alarme. Si vous ne comprenez pas le sens de cette                     !
   ! alarme, vous pouvez obtenir des résultats inattendus !                             !
   !------------------------------------------------------------------------------------!
   
                           Parallélisme MPI : inactif                           
                          Parallélisme OpenMP : actif                           
                        Nombre de processus utilisés : 1                        
                      Version de la librairie HDF5 : 1.8.8                      
                      Version de la librairie MED : 3.0.6                       
                          Librairie MUMPS : installée                           
                    Version de la librairie SCOTCH : 5.1.10                     
                 Mémoire limite pour l'exécution : 20000.00 Mo                  
                   consommée par l'initialisation : 210.67 Mo                   
                 par les objets du jeu de commandes : 11.87 Mo                  
                reste pour l'allocation dynamique : 19777.46 Mo                 
                Taille limite des fichiers d'échange : 97.66 Go                 
                                                                                
   
   !----------------------------------------------------------------------------------------------------------------!
   ! <EXCEPTION> <MATRICE0_12>                                                                                      !
   !                                                                                                                !
   !  Une des charges renseignées pour l'assemblage des vecteurs est déjà présente dans le mot-clé                  !
   !  CHARGE définissant les conditions de Dirichlet. Il est interdit de renseigner plus d'une fois la même charge. !
   !----------------------------------------------------------------------------------------------------------------!
   

 --------------------------------------------------------------------------------
 ASTER 11.03.00 CONCEPT Pr_0 CALCULE LE 24/06/2016 A 16:25:03 DE TYPE ACOU_HARMO 

                    ENTITES TOPOLOGIQUES SELECTIONNEES 
 GROUP_MA : ENTREE SORTIE                                                        


 ======>

 ------>
 CHAMP AUX NOEUDS DE NOM SYMBOLIQUE  INTE_NOEU                                   
 NUMERO D'ORDRE: 1 FREQ:   2.00000000000000E+01                                  
 NOEUD        INTX_R       INTX_I       INTY_R       INTY_I       INTZ_R       INTZ_I  
 N1       -1.17629638027350E-28 -3.66088660585022E-02 -6.45602532237712E-29 -2.50151595046411E-01  2.81052112342396E-28 -5.00889190176151E-02
 N2        1.53767787503832E-28  4.26568106122385E-02  3.62318267089771E-28 -2.83201503052576E-01 -1.74513904864772E-28 -5.28536045176222E-02
 N3       -9.07490486075488E-29  2.55588565435148E-02 -5.67979851759128E-29 -3.06149946711196E+02  5.01531416817880E-29 -3.18698723889636E-02
 N4        1.47566678268894E-29 -2.40174338239247E-02  1.32528632077130E-28 -3.06142675647125E+02  4.29282080884137E-29 -2.35146289115750E-02
 N18      -1.93146458556492E-29  1.68807706149344E-02 -8.67746995743113E-30 -3.06134962308238E+02 -1.02445275326592E-28  1.47297432514007E-02
 N19       4.44362112348689E-29 -2.00646823408938E-02 -1.70393955527739E-28 -3.06160378450890E+02  1.49646682608833E-28  2.07766950383856E-02
 N28       4.94856143630634E-29 -4.01710312900791E-02  3.70179142750782E-28 -2.59722983493518E-01  8.73659600672382E-29  5.18085668398309E-02
 N29       1.35193709860049E-28  2.02550609432387E-02  1.66874125961376E-28 -2.81683183084655E-01  1.30092114030361E-29  7.54284616554837E-02
 N41       4.16765462175565E-29 -5.12353860284367E-02  2.22737649928273E-29 -2.48543808006037E-01  4.67507938420335E-29 -6.28882705241336E-02
 N42       1.80013462018634E-29  2.17063074992245E-03  5.28485448366228E-29 -3.31163369222594E-01 -1.90746669598704E-29 -6.21985094005630E-02
 N43       7.37857465468777E-29  6.70899648208888E-02  1.30155886385645E-28 -2.90854824034467E-01  4.42228663452794E-29 -2.66576101376026E-02
 N44       1.06863015562745E-28  6.63194685647374E-02  8.17148964244172E-29 -2.66068128514835E-01  4.96860555220255E-29  9.11179387519937E-03
 N45       5.66746775112235E-29 -2.18676123126331E-02  2.75467300689662E-28 -2.68597181984775E-01  7.76451175624353E-29  6.37507474113072E-02
 N46      -3.58532562894586E-29 -1.40644973721305E-02  3.21601026577514E-28 -2.61304064578298E-01  1.94596924545859E-28  8.77948509060289E-02
 N47       5.42126718451373E-29 -4.92445241868191E-02  6.71350564797074E-29 -3.27788241187550E-01  9.07097046101135E-29 -1.57264366461605E-02
 N48       8.02320266637362E-29 -5.17861488650575E-02  3.07309856018183E-28 -3.21403868216962E-01  6.48684020148731E-29  8.86152276366720E-03
 N64       3.64637680571213E-29  1.36872116436479E-04  1.89326617253043E-29 -3.06144205170753E+02 -2.38855837879930E-30  2.43859213536472E-03
 N65       1.12504642148839E-28  8.27820662555993E-03 -6.38977333229020E-29 -3.06153960788418E+02  7.73671095749630E-29 -1.24915229335411E-02
 N110     -1.15834992307505E-28  2.10152065936189E-02 -1.51461293802434E-28 -3.06148059324446E+02 -4.00712836089097E-29 -1.67272295490763E-02
 N111     -2.16921341496223E-29  3.03267811838970E-02 -1.34106353887572E-28 -3.06151405935498E+02 -5.15970237743155E-29  1.01150011847297E-03
 N121     -6.10409292140195E-29 -1.50538205147511E-02 -1.63294207380749E-28 -3.06164501713961E+02  1.72471648751744E-28  2.56981437926276E-02
 N122     -4.11370872216025E-29 -4.91548618325284E-03  6.86308987542280E-29 -3.06170569192191E+02 -9.54202953911628E-29  3.42708814545669E-02
 N123      8.20742611953973E-30 -6.32409267988851E-03  2.47927713069461E-29 -3.06138468850693E+02 -1.35635357408532E-29 -3.65214407965469E-03
 N124      6.08821603642290E-29 -2.45547724759681E-02 -1.17540274877931E-28 -3.06152340363449E+02  6.62122798188801E-29  1.71722673694796E-02
 N248     -3.53311848297838E-32 -4.50002452684055E-02  2.26236679451235E-29 -3.66731849367833E-01  4.68196506523702E-29 -3.35310397356447E-03
 N249      2.39657092638172E-29  1.80286360901275E-03  2.24891728496841E-29 -3.91572223355825E-01  1.05628961136033E-29 -7.73154967317013E-03
 N250      1.57717549977833E-29 -1.20125901338455E-02  9.30997836710980E-29 -3.35998235940272E-01  1.93953388811584E-29  2.35410897065821E-02
 N251      3.57818123132299E-30 -2.32727698528758E-02  1.22205390784555E-28 -3.64642535985848E-01  7.59005610674722E-29  7.30754651990728E-03
 N302      1.30863412861902E-28 -3.36208956302254E-03  9.46633086265214E-30 -3.06156013141429E+02  3.11899178556787E-29 -4.02130968076055E-03
 N303      6.02958084849391E-29  6.78379179430673E-03 -1.26480698470436E-28 -3.06146809275797E+02  1.35607814389203E-29 -1.17916269367391E-02
 N304      7.34035961546118E-30 -1.19461632117083E-04 -1.32134201624519E-29 -3.06128355865449E+02 -3.52699211675241E-29  3.48883167526902E-03
 N305     -2.19088803690600E-30 -5.34635808501326E-03 -2.52435489670724E-29 -3.06129702214576E+02  4.90791876883328E-29  7.11815850693108E-03
 

 ------>
 CHAMP AUX NOEUDS DE NOM SYMBOLIQUE  PRAC_NOEU                                   
 NUMERO D'ORDRE: 1 FREQ:   2.00000000000000E+01                                  
 NOEUD        PRES_R       PRES_I  
 N1       -1.92018863656210E-14 -3.13590602269815E+02
 N2       -1.92019420334098E-14 -3.13591511393798E+02
 N3       -1.25027667561323E-14 -2.04185676471570E+02
 N4       -1.25027991802383E-14 -2.04186205997406E+02
 N18      -1.25028336524867E-14 -2.04186768971946E+02
 N19      -1.25027713389471E-14 -2.04185751314615E+02
 N28      -1.92019005178876E-14 -3.13590833393868E+02
 N29      -1.92019654918853E-14 -3.13591894499776E+02
 N41      -1.92019220375899E-14 -3.13591184837277E+02
 N42      -1.92019907947662E-14 -3.13592307727182E+02
 N43      -1.92019965724056E-14 -3.13592402083193E+02
 N44      -1.92019591748977E-14 -3.13591791335541E+02
 N45      -1.92019396608296E-14 -3.13591472646623E+02
 N46      -1.92019229887511E-14 -3.13591200370918E+02
 N47      -1.92019380519211E-14 -3.13591446371154E+02
 N48      -1.92019566098956E-14 -3.13591749445877E+02
 N64      -1.25028351273596E-14 -2.04186793058449E+02
 N65      -1.25028161279414E-14 -2.04186482774402E+02
 N110     -1.25028215527921E-14 -2.04186571368937E+02
 N111     -1.25028072048529E-14 -2.04186337049307E+02
 N121     -1.25028030970713E-14 -2.04186269964143E+02
 N122     -1.25027957481965E-14 -2.04186149947910E+02
 N123     -1.25028357820705E-14 -2.04186803750689E+02
 N124     -1.25028053094113E-14 -2.04186306094397E+02
 N248     -1.92020226881979E-14 -3.13592828586447E+02
 N249     -1.92020653528539E-14 -3.13593525353158E+02
 N250     -1.92020205703025E-14 -3.13592793998590E+02
 N251     -1.92020148380251E-14 -3.13592700383397E+02
 N302     -1.25028034932211E-14 -2.04186276433760E+02
 N303     -1.25028469283186E-14 -2.04186985782735E+02
 N304     -1.25028564247325E-14 -2.04187140870943E+02
 N305     -1.25028512356597E-14 -2.04187056126953E+02
 
   
   !----------------------------------------------------------------------------------------------------------------!
   ! <EXCEPTION> <MATRICE0_12>                                                                                      !
   !                                                                                                                !
   !  Une des charges renseignées pour l'assemblage des vecteurs est déjà présente dans le mot-clé                  !
   !  CHARGE définissant les conditions de Dirichlet. Il est interdit de renseigner plus d'une fois la même charge. !
   !----------------------------------------------------------------------------------------------------------------!
   

 --------------------------------------------------------------------------------
 ASTER 11.03.00 CONCEPT Pr_1 CALCULE LE 24/06/2016 A 16:25:03 DE TYPE ACOU_HARMO 

                    ENTITES TOPOLOGIQUES SELECTIONNEES 
 GROUP_MA : ENTREE SORTIE                                                        


 ======>

 ------>
 CHAMP AUX NOEUDS DE NOM SYMBOLIQUE  INTE_NOEU                                   
 NUMERO D'ORDRE: 1 FREQ:   3.20000000000000E+01                                  
 NOEUD        INTX_R       INTX_I       INTY_R       INTY_I       INTZ_R       INTZ_I  
 N1       -2.04649315890588E-30 -2.32287087213691E-02  2.82772738154712E-29 -1.58728910531494E-01  3.37715667608191E-29 -3.17833639322530E-02
 N2       -6.97257899276122E-29  2.70678178721924E-02 -8.64264914403661E-29 -1.79702277316308E-01 -5.39260384428426E-31 -3.35372822064192E-02
 N3        1.18677608732464E-30  6.07675389431463E-04  3.54987407349455E-30 -3.27313188205392E+01 -6.83675037602088E-31 -7.33141478226228E-04
 N4       -1.21274003038741E-30 -5.57963029064181E-04  3.15544362088405E-30 -3.27314762363089E+01 -4.66881529705923E-31 -4.89923141336837E-04
 N18      -5.82550926143221E-31  3.79025855519868E-04  4.73316543132607E-30 -3.27314710460498E+01 -4.15390363241600E-31  3.74264092346262E-04
 N19      -8.92211120861692E-31 -4.83934904122102E-04  3.54987407349455E-30 -3.27314869889335E+01  2.94685337084476E-31  4.96247761313206E-04
 N28      -1.13643348228458E-29 -2.54892713023774E-02 -1.10825712719819E-29 -1.64802509550141E-01  1.01531174808206E-29  3.28742966728729E-02
 N29      -9.50216519667990E-30  1.28537523005997E-02  5.04389496855351E-29 -1.78739050260296E-01 -1.06995038060433E-29  4.78607150915628E-02
 N41       3.99664648716864E-29 -3.25094219964428E-02 -6.22468261745732E-29 -1.57709522219579E-01  1.01149840679218E-30 -3.99046004603734E-02
 N42       2.23785997794667E-29  1.37825504513679E-03 -4.30722676482539E-29 -2.10135998662353E-01 -5.13048156896992E-29 -3.94669234542615E-02
 N43      -2.24810432030919E-29  4.25714165376500E-02 -2.09452585171889E-29 -1.84559482866050E-01 -8.26397279837119E-30 -1.69149636387833E-02
 N44       1.20572844168363E-29  4.20825638603617E-02  5.93752646274918E-29 -1.68831232962833E-01  1.61740559694612E-29  5.78198347511967E-03
 N45       1.52615744359349E-29 -1.38748871783118E-02 -3.60765197182617E-30 -1.70434337308622E-01  4.69268238389505E-29  4.04519194323439E-02
 N46       1.83319160274013E-29 -8.92349113264561E-03  1.28879380018505E-29 -1.65806417102679E-01  4.85596272458020E-29  5.57082381115026E-02
 N47      -8.53968342655268E-30 -3.12461420368278E-02 -1.74566290159259E-30 -2.07992241279770E-01  2.17489078130544E-29 -9.97920411543179E-03
 N48      -2.27601104520336E-29 -3.28593496883437E-02  1.86541722553459E-29 -2.03941434466982E-01  1.94966462353938E-29  5.62327787132923E-03
 N64      -1.12900897219454E-30  1.05270361184098E-05  4.14151975241031E-30 -3.27317915526062E+01 -8.12638220141006E-31  4.37348652138800E-05
 N65       5.34726173578886E-31  2.07820577315270E-04  3.74708929979981E-30 -3.27318124377472E+01 -1.27766418205565E-30 -2.98736918332582E-04
 N110      1.25362792434216E-30  5.11406691962683E-04  5.52202633654708E-30 -3.27316931312027E+01  3.23550212125979E-31 -3.60611685551998E-04
 N111      3.92026049445560E-31  7.04496703513672E-04  6.31088724176809E-30 -3.27316482627437E+01 -1.04052484177726E-30  4.90950099623186E-05
 N121     -6.36886224699246E-31 -3.79761140323097E-04  4.14151975241031E-30 -3.27318654206736E+01  4.39263995229964E-31  6.25888243362194E-04
 N122      1.36598913486457E-30 -1.26064221068993E-04  5.02898827078395E-30 -3.27319722254206E+01  1.82369014773012E-31  8.17533188067473E-04
 N123     -7.15103162039442E-31 -2.06848517103554E-04  3.66256848852613E-30 -3.27316128774972E+01 -9.96118373048229E-31 -1.60233874739710E-05
 N124     -1.06034480500670E-30 -6.03613851891553E-04  3.45126646034193E-30 -3.27315857508705E+01  6.59529067082525E-31  4.32370432767500E-04
 N248      2.52886349870705E-29 -2.85526339851500E-02 -1.93988908462415E-29 -2.32706169729114E-01 -1.56229162083946E-29 -2.12744131926160E-03
 N249      2.25671730124318E-29  1.14460335972259E-03  8.06283163794853E-31 -2.48469571586314E-01 -8.05101679848200E-30 -4.90548466847894E-03
 N250      9.63535614918658E-30 -7.62155458750013E-03  4.44393477493498E-29 -2.13205268663049E-01  2.18864398460473E-29  1.49371546206607E-02
 N251      1.34640007007214E-29 -1.47658363874137E-02  1.21610920408388E-29 -2.31379810681429E-01  2.91899834262481E-29  4.63679724830291E-03
 N302     -1.84328234717414E-31 -6.74832663152690E-05  5.07829207736026E-30 -3.27318233573451E+01 -7.18615126057398E-31 -8.35979377456632E-05
 N303      1.05059497274233E-30  1.86583307711656E-04  5.58776474531550E-30 -3.27319022491362E+01 -5.44870156935710E-32 -2.61389266530162E-04
 N304      1.05243632586818E-30 -1.05625705490922E-05  4.83177304447870E-30 -3.27314775668460E+01 -1.06708697040527E-31  1.28539741024041E-04
 N305     -1.67283324814510E-31 -1.56636130893194E-04  4.81768624259975E-30 -3.27314519409554E+01  1.03610517109726E-31  2.36172032839823E-04
 

 ------>
 CHAMP AUX NOEUDS DE NOM SYMBOLIQUE  PRAC_NOEU                                   
 NUMERO D'ORDRE: 1 FREQ:   3.20000000000000E+01                                  
 NOEUD        PRES_R       PRES_I  
 N1       -1.20923776374829E-14 -1.97483513546961E+02
 N2       -1.20924673756995E-14 -1.97484979083255E+02
 N3       -1.33625634243456E-15 -2.18227221655242E+01
 N4       -1.33626797603082E-15 -2.18229121565693E+01
 N18      -1.33627795461382E-15 -2.18230751191966E+01
 N19      -1.33625515061015E-15 -2.18227027015545E+01
 N28      -1.20924004528126E-14 -1.97483886149571E+02
 N29      -1.20925051944053E-14 -1.97485596709592E+02
 N41      -1.20924351441302E-14 -1.97484452701781E+02
 N42      -1.20925459880634E-14 -1.97486262920586E+02
 N43      -1.20925553003407E-14 -1.97486415001615E+02
 N44      -1.20924950091784E-14 -1.97485430372214E+02
 N45      -1.20924635557507E-14 -1.97484916698757E+02
 N46      -1.20924366751690E-14 -1.97484477705543E+02
 N47      -1.20924609644977E-14 -1.97484874380383E+02
 N48      -1.20924908817769E-14 -1.97485362966631E+02
 N64      -1.33628047794795E-15 -2.18231163283704E+01
 N65      -1.33627363051301E-15 -2.18230045012714E+01
 N110     -1.33627507210196E-15 -2.18230280442056E+01
 N111     -1.33626919249499E-15 -2.18229320229368E+01
 N121     -1.33626661751952E-15 -2.18228899703962E+01
 N122     -1.33626456839669E-15 -2.18228565056807E+01
 N123     -1.33627939235593E-15 -2.18230985993073E+01
 N124     -1.33626729737029E-15 -2.18229010732018E+01
 N248     -1.20925974058427E-14 -1.97487102636646E+02
 N249     -1.20926661850976E-14 -1.97488225887120E+02
 N250     -1.20925939893532E-14 -1.97487046841139E+02
 N251     -1.20925847519606E-14 -1.97486895983070E+02
 N302     -1.33626996024356E-15 -2.18229445612225E+01
 N303     -1.33628430496011E-15 -2.18231788282219E+01
 N304     -1.33628610357777E-15 -2.18232082018774E+01
 N305     -1.33628429374836E-15 -2.18231786451202E+01
 
   
   !----------------------------------------------------------------------------------------------------------------!
   ! <EXCEPTION> <MATRICE0_12>                                                                                      !
   !                                                                                                                !
   !  Une des charges renseignées pour l'assemblage des vecteurs est déjà présente dans le mot-clé                  !
   !  CHARGE définissant les conditions de Dirichlet. Il est interdit de renseigner plus d'une fois la même charge. !
   !----------------------------------------------------------------------------------------------------------------!
   

 --------------------------------------------------------------------------------
 ASTER 11.03.00 CONCEPT Pr_2 CALCULE LE 24/06/2016 A 16:25:03 DE TYPE ACOU_HARMO 

                    ENTITES TOPOLOGIQUES SELECTIONNEES 
 GROUP_MA : ENTREE SORTIE                                                        


 ======>

 ------>
 CHAMP AUX NOEUDS DE NOM SYMBOLIQUE  INTE_NOEU                                   
 NUMERO D'ORDRE: 1 FREQ:   4.40000000000000E+01                                  
 NOEUD        INTX_R       INTX_I       INTY_R       INTY_I       INTZ_R       INTZ_I  
 N1        1.18787507109916E-29 -1.72710733146920E-02  2.38245237840479E-29 -1.18024103319672E-01  1.03784512843139E-29 -2.36331977092873E-02
 N2        1.92652698267000E-29  2.01273042653863E-02  2.79336879133925E-30 -1.33621380150391E-01 -1.66978126178373E-29 -2.49369458612758E-02
 N3        1.42548186316307E-29  1.12856917199772E-02  1.57772181044202E-30  1.46390992917156E+02 -1.95515593129331E-30 -1.43438843641022E-02
 N4       -3.87506734460434E-30 -1.07491993909145E-02 -1.26217744835362E-29  1.46396870506551E+02 -9.56676810925194E-30 -1.11462905920334E-02
 N18       5.44447154509904E-30  7.70028265732131E-03  3.94430452610506E-30  1.46402047740941E+02 -4.78659343632236E-30  6.23826949931124E-03
 N19       1.77358888578621E-30 -8.78359571156349E-03  6.31088724176809E-30  1.46386369281812E+02  4.66046157592545E-30  9.14848226015109E-03
 N28      -2.95090986079012E-30 -1.89522131884793E-02  3.65464466246922E-29 -1.22540454568745E-01  3.84585098734798E-29  2.44441118295261E-02
 N29       6.62129900055471E-30  9.55890914049527E-03  2.74109905264858E-29 -1.32905376050453E-01  5.78239400943501E-30  3.55861461603102E-02
 N41       1.48628828633224E-30 -2.41715308326211E-02  1.14284682899939E-29 -1.17267001000876E-01 -8.97945577271105E-30 -2.96714283493474E-02
 N42      -2.56190411085631E-30  1.02581503472426E-03 -1.38027547254344E-29 -1.56251082237063E-01 -8.04637481348784E-30 -2.93459877421961E-02
 N43      -1.40484070898410E-29  3.16551330064807E-02 -1.92169289850958E-30 -1.37234011106743E-01 -5.39294088202453E-30 -1.25771284721194E-02
 N44       7.72134203654009E-30  3.12916982427004E-02  2.97427139101554E-29 -1.25538795225491E-01 -8.89449216950819E-30  4.29953066661103E-03
 N45       6.89605698124585E-30 -1.03159227928092E-02  6.52428027960620E-30 -1.26728994118978E-01  1.01486878419485E-30  3.00784468647205E-02
 N46      -8.47038434016089E-30 -6.63418862152757E-03  1.01184507418217E-29 -1.23287637928885E-01  7.61763070903483E-30  4.14219573764711E-02
 N47       1.07885780659712E-29 -2.32321912182243E-02  5.79847982342141E-30 -1.54654755686397E-01 -4.48039400444648E-30 -7.42043399720787E-03
 N48       1.15035795578250E-29 -2.44322130941500E-02 -3.36652554278889E-31 -1.51643045918855E-01  8.62720318588262E-31  4.18163162137809E-03
 N64       5.05773678755798E-30 -1.98577289160213E-05  4.73316543132607E-30  1.46398329084702E+02 -5.03464167764154E-30  1.23350427566360E-03
 N65       1.84293440084630E-30  3.53403618095150E-03  8.67746995743113E-30  1.46392276218162E+02  9.62045340645173E-30 -5.49690811139405E-03
 N110      5.88284931162803E-30  9.14980502237712E-03  3.15544362088405E-30  1.46395128648310E+02 -4.08199246771254E-30 -7.79598448046935E-03
 N111      6.65695277865018E-30  1.35734489963955E-02  1.57772181044202E-30  1.46392968947321E+02 -2.15680230110342E-30  1.69555343108118E-04
 N121     -1.51977539324027E-30 -6.40605622108994E-03  3.94430452610506E-30  1.46386659627731E+02  1.87002982775140E-30  1.11823539017508E-02
 N122     -4.30223258773835E-30 -2.06911491358714E-03  1.97215226305253E-30  1.46383581405768E+02 -4.69291349548838E-30  1.51019359104037E-02
 N123      2.60716575732315E-30 -2.16928203691203E-03  1.35233298037888E-30  1.46400842355498E+02 -1.11241713587807E-30 -2.39441428938100E-03
 N124      3.45374609514533E-30 -1.06237627965894E-02  3.15544362088405E-30  1.46392107743328E+02  8.11676855604371E-30  7.31613015556336E-03
 N248      5.15185056417370E-30 -2.12289973402177E-02 -5.23175017532904E-30 -1.73034254633149E-01 -1.33576037040323E-29 -1.58165068336966E-03
 N249      7.60105289666738E-31  8.51764123307382E-04  1.32006201357446E-30 -1.84756793829323E-01 -6.88528103283586E-30 -3.64705185698329E-03
 N250      3.50612967005235E-31 -5.66619100013325E-03  6.95112138185225E-30 -1.58534780623922E-01 -7.04793891190478E-30  1.11062086370072E-02
 N251      5.78187440958543E-30 -1.09776704917796E-02 -4.71762959644135E-30 -1.72047350860217E-01 -1.07348807317093E-29  3.44765396796154E-03
 N302      5.34191276629488E-31 -1.62195044389114E-03  9.26911563634689E-30  1.46391027840311E+02  2.20401617276352E-30 -1.90863934134739E-03
 N303      3.56785493662899E-30  2.71646235244459E-03  6.70531769437860E-30  1.46397505660634E+02  1.92558488193887E-30 -5.41657905668961E-03
 N304     -4.06745683746105E-31  3.23533319006188E-05  2.66240555512091E-30  1.46406091309543E+02 -1.21913377926041E-30  1.03686266970536E-03
 N305     -2.36624395834246E-30 -2.03504118847850E-03  1.91580505553674E-30  1.46404998842853E+02  3.21496947259823E-30  2.40400182857205E-03
 

 ------>
 CHAMP AUX NOEUDS DE NOM SYMBOLIQUE  PRAC_NOEU                                   
 NUMERO D'ORDRE: 1 FREQ:   4.40000000000000E+01                                  
 NOEUD        PRES_R       PRES_I  
 N1       -8.89241580945525E-15 -1.45224171012352E+02
 N2       -8.89254055950972E-15 -1.45226208335351E+02
 N3        5.97345967210831E-15  9.75539996718607E+01
 N4        5.97352528383041E-15  9.75550711925987E+01
 N18       5.97360316036055E-15  9.75563430128525E+01
 N19       5.97347858217106E-15  9.75543084966216E+01
 N28      -8.89244752921784E-15 -1.45224689035387E+02
 N29      -8.89259313929444E-15 -1.45227067028400E+02
 N41      -8.89249575733400E-15 -1.45225476660296E+02
 N42      -8.89264985820808E-15 -1.45227993318555E+02
 N43      -8.89266280075618E-15 -1.45228204686406E+02
 N44      -8.89257897609169E-15 -1.45226835725746E+02
 N45      -8.89253525878795E-15 -1.45226121767995E+02
 N46      -8.89249788111613E-15 -1.45225511344290E+02
 N47      -8.89253166133585E-15 -1.45226063017144E+02
 N48      -8.89257325352645E-15 -1.45226742269164E+02
 N64       5.97359936585861E-15  9.75562810439331E+01
 N65       5.97356102434893E-15  9.75556548795613E+01
 N110      5.97357371692804E-15  9.75558621651087E+01
 N111      5.97354717253301E-15  9.75554286622400E+01
 N121      5.97354259935274E-15  9.75553539765383E+01
 N122      5.97352573639408E-15  9.75550785835243E+01
 N123      5.97360517417382E-15  9.75563759009191E+01
 N124      5.97354745940929E-15  9.75554333472852E+01
 N248     -8.89272134619156E-15 -1.45229160805924E+02
 N249     -8.89281696510490E-15 -1.45230722381284E+02
 N250     -8.89271659191219E-15 -1.45229083162650E+02
 N251     -8.89270375704131E-15 -1.45228873553301E+02
 N302      5.97353253207556E-15  9.75551895654252E+01
 N303      5.97362462951466E-15  9.75566936307470E+01
 N304      5.97364930973907E-15  9.75570966893990E+01
 N305      5.97363863223458E-15  9.75569223125175E+01
 
   
   !----------------------------------------------------------------------------------------------------------------!
   ! <EXCEPTION> <MATRICE0_12>                                                                                      !
   !                                                                                                                !
   !  Une des charges renseignées pour l'assemblage des vecteurs est déjà présente dans le mot-clé                  !
   !  CHARGE définissant les conditions de Dirichlet. Il est interdit de renseigner plus d'une fois la même charge. !
   !----------------------------------------------------------------------------------------------------------------!
   

 --------------------------------------------------------------------------------
 ASTER 11.03.00 CONCEPT Pr_3 CALCULE LE 24/06/2016 A 16:25:03 DE TYPE ACOU_HARMO 

                    ENTITES TOPOLOGIQUES SELECTIONNEES 
 GROUP_MA : ENTREE SORTIE                                                        


 ======>

 ------>
 CHAMP AUX NOEUDS DE NOM SYMBOLIQUE  INTE_NOEU                                   
 NUMERO D'ORDRE: 1 FREQ:   5.60000000000000E+01                                  
 NOEUD        INTX_R       INTX_I       INTY_R       INTY_I       INTZ_R       INTZ_I  
 N1       -1.35296578593203E-31 -1.39711175275459E-02  2.04379685698373E-30 -9.54793358251192E-02 -3.67274840394646E-31 -1.91192842496533E-02
 N2        6.68220653504595E-30  1.62834928773593E-02 -6.99420718603669E-30 -1.08099767568283E-01  3.49883692996829E-30 -2.01735760730412E-02
 N3       -1.85646165129319E-29  5.99464688939784E-02  6.31088724176809E-30  2.93296408701128E+02  1.56770697473121E-29 -7.57217474553123E-02
 N4        3.17308513917463E-29 -5.68469872342738E-02 -3.15544362088405E-30  2.93323302192449E+02  3.45365461347297E-29 -5.78850053416686E-02
 N18       3.08841162916965E-29  4.04754937924723E-02  1.26217744835362E-29  2.93347783923649E+02  2.22428177060334E-29  3.35948166349646E-02
 N19      -1.74315919266489E-29 -4.67873115049584E-02 -2.52435489670724E-29  2.93271609845810E+02 -1.13190754691527E-29  4.86359469703053E-02
 N28       1.56212177789249E-30 -1.53314280906981E-02 -9.29916014347933E-30 -9.91332792982451E-02 -1.51499427215333E-29  1.97750252036500E-02
 N29      -9.00100211396388E-30  7.73447525827557E-03 -1.30054197284581E-29 -1.07520757960498E-01 -2.10579976413085E-30  2.87874148767934E-02
 N41       5.35988710935398E-30 -1.95531542424422E-02  5.16707744779652E-30 -9.48677817050085E-02  9.77732040042207E-30 -2.40037005239297E-02
 N42       5.23063313596129E-30  8.30933128335865E-04  1.37164730639259E-30 -1.26407286570788E-01  1.00515888739190E-30 -2.37404223391825E-02
 N43       7.17972238792979E-30  2.56093041109774E-02 -3.05336933383152E-30 -1.11023403805066E-01 -5.33958058550285E-30 -1.01745353311363E-02
 N44      -9.28611196810611E-30  2.53153510263177E-02 -1.49380904276507E-29 -1.01561811147752E-01  9.59747465480276E-30  3.47855280561871E-03
 N45      -2.82726515836046E-31 -8.34448080030439E-03 -4.23858662160743E-30 -1.02522742886352E-01 -6.04645706040373E-30  2.43330300788405E-02
 N46       9.39697331052990E-30 -5.36593430538417E-03  4.72430615358189E-30 -9.97385033734686E-02 -1.73304806045685E-30  3.35092509058795E-02
 N47       4.52655441822070E-30 -1.87932265096997E-02  5.73156751449641E-31 -1.25113419416236E-01  6.72025052976883E-30 -6.00333549344918E-03
 N48      -5.33458520470959E-30 -1.97645638640188E-02 -5.36833712698498E-30 -1.22677319535262E-01 -3.58958434153539E-30  3.38328928877203E-03
 N64       9.43631845435211E-30  3.33925107163646E-05 -1.26217744835362E-29  2.93327634447931E+02  1.87802243702060E-30  6.27844188660299E-03
 N65       2.36739642106454E-29  1.89824886336267E-02 -1.18329135783152E-29  2.93298331693580E+02  2.84269667203986E-29 -2.92326915406666E-02
 N110     -6.77626895352983E-29  4.88263895536093E-02  4.20725816117873E-30  2.93313049803690E+02 -1.25826781056651E-29 -4.07034450170054E-02
 N111     -2.60693877272256E-29  7.17821417578206E-02  1.65660790096412E-29  2.93302549595526E+02 -2.79007665484056E-30  1.37718220222027E-03
 N121      1.15938815980924E-29 -3.44448491274976E-02 -7.09974814698911E-30  2.93269790311851E+02 -1.90738323902279E-29  5.96811148248860E-02
 N122     -1.20685992552596E-30 -1.11666842467839E-02 -1.18329135783152E-29  2.93254129570151E+02 -2.97248027616726E-30  8.02677308151787E-02
 N123      9.60062320634577E-30 -1.26027849514839E-02 -4.95855426138922E-30  2.93340880996755E+02  5.37779481867617E-30 -1.13665123400871E-02
 N124      6.64060644824719E-31 -5.68092326508221E-02 -7.09974814698911E-30  2.93298602088769E+02 -1.40339144670095E-29  3.93199475836967E-02
 N248      6.67493614950589E-31 -1.71722372987484E-02  7.59948844895871E-30 -1.39985574499512E-01  5.25840519622263E-30 -1.27928711009440E-03
 N249     -1.86895945514769E-30  6.89791288300371E-04  3.44682200662411E-30 -1.49470533220427E-01  1.12112456145356E-30 -2.94990933754268E-03
 N250      1.04910476832680E-30 -4.58291362754388E-03 -1.61480971851394E-30 -1.28256373681942E-01  1.17388181438894E-30  8.98426411884376E-03
 N251      6.19175844382262E-30 -8.87905144227631E-03 -1.18560247376478E-30 -1.39186464567202E-01 -4.37851533756622E-30  2.78901203476252E-03
 N302      1.64258351985034E-29 -8.37733415109350E-03 -2.87934230405669E-29  2.93292271982798E+02  5.16546448146809E-31 -9.91001744599803E-03
 N303     -4.24975099675380E-30  1.49129756057041E-02 -1.81438008200833E-29  2.93322757721071E+02 -7.07718868633845E-30 -2.84109022971863E-02
 N304     -5.51448756213684E-30  2.39322072976451E-05 -8.67746995743113E-30  2.93367515849496E+02 -5.33853561804474E-30  6.37710574880568E-03
 N305     -2.12764015361626E-30 -1.13741233463772E-02 -9.24094203258899E-30  2.93362534015029E+02 -9.17043236166073E-30  1.40471669419160E-02
 

 ------>
 CHAMP AUX NOEUDS DE NOM SYMBOLIQUE  PRAC_NOEU                                   
 NUMERO D'ORDRE: 1 FREQ:   5.60000000000000E+01                                  
 NOEUD        PRES_R       PRES_I  
 N1       -7.08963952752921E-15 -1.15782600051954E+02
 N2       -7.08980061057958E-15 -1.15785230737806E+02
 N3        1.19600368007372E-14  1.95322223665864E+02
 N4        1.19602586855739E-14  1.95325847320241E+02
 N18       1.19605130906285E-14  1.95330002070081E+02
 N19       1.19600901213691E-14  1.95323094457866E+02
 N28      -7.08968049050210E-15 -1.15783269028069E+02
 N29      -7.08986851407718E-15 -1.15786339686078E+02
 N41      -7.08974276793955E-15 -1.15784286095806E+02
 N42      -7.08994176813556E-15 -1.15787536015639E+02
 N43      -7.08995847511697E-15 -1.15787808861351E+02
 N44      -7.08985021883222E-15 -1.15786040902053E+02
 N45      -7.08979378235428E-15 -1.15785119224424E+02
 N46      -7.08974550244510E-15 -1.15784330753671E+02
 N47      -7.08978914530298E-15 -1.15785043495629E+02
 N48      -7.08984285536054E-15 -1.15785920647435E+02
 N64       1.19605077259031E-14  1.95329914457466E+02
 N65       1.19603779504059E-14  1.95327795062759E+02
 N110      1.19604189817951E-14  1.95328465156198E+02
 N111      1.19603264787172E-14  1.95326954466291E+02
 N121      1.19603068820528E-14  1.95326634428475E+02
 N122      1.19602520658451E-14  1.95325739211866E+02
 N123      1.19605224131166E-14  1.95330154317865E+02
 N124      1.19603228834655E-14  1.95326895751375E+02
 N248     -7.09003409251433E-15 -1.15789043787167E+02
 N249     -7.09015756870072E-15 -1.15791060306321E+02
 N250     -7.09002794536104E-15 -1.15788943396535E+02
 N251     -7.09001138349399E-15 -1.15788672920720E+02
 N302      1.19602848433141E-14  1.95326274508557E+02
 N303      1.19605916375571E-14  1.95331284838772E+02
 N304      1.19606690680046E-14  1.95332549373943E+02
 N305      1.19606331527426E-14  1.95331962833203E+02
 
   
   !----------------------------------------------------------------------------------------------------------------!
   ! <EXCEPTION> <MATRICE0_12>                                                                                      !
   !                                                                                                                !
   !  Une des charges renseignées pour l'assemblage des vecteurs est déjà présente dans le mot-clé                  !
   !  CHARGE définissant les conditions de Dirichlet. Il est interdit de renseigner plus d'une fois la même charge. !
   !----------------------------------------------------------------------------------------------------------------!
   

 --------------------------------------------------------------------------------
 ASTER 11.03.00 CONCEPT Pr_4 CALCULE LE 24/06/2016 A 16:25:04 DE TYPE ACOU_HARMO 

                    ENTITES TOPOLOGIQUES SELECTIONNEES 
 GROUP_MA : ENTREE SORTIE                                                        


 ======>

 ------>
 CHAMP AUX NOEUDS DE NOM SYMBOLIQUE  INTE_NOEU                                   
 NUMERO D'ORDRE: 1 FREQ:   6.80000000000000E+01                                  
 NOEUD        INTX_R       INTX_I       INTY_R       INTY_I       INTZ_R       INTZ_I  
 N1        5.67167109322597E-30 -1.19295140862153E-02 -1.22720256056355E-30 -8.15331658473208E-02 -5.46598177516541E-30 -1.63271173844744E-02
 N2        2.32642707632256E-30  1.39059718302621E-02 -1.52225502804367E-30 -9.23128653572636E-02  3.41005155953204E-30 -1.72269731934343E-02
 N3       -8.62970689481033E-30  1.55545838934049E-01 -4.89093761237027E-29  4.26685062148112E+02  5.01797195150206E-29 -1.96151310540175E-01
 N4       -2.81355253715643E-29 -1.47327653244383E-01  6.31088724176809E-30  4.26751672193386E+02  4.89109168676582E-29 -1.49270028985691E-01
 N18       3.66446690518559E-30  1.04725048306382E-01 -3.39210189245035E-29  4.26813034162810E+02 -7.87834143819410E-29  8.74899765343125E-02
 N19       5.50507815303647E-30 -1.21492500453301E-01 -6.94197596594490E-29  4.26620644322301E+02 -3.35034773125604E-29  1.26222578948067E-01
 N28       7.63265296260105E-30 -1.30914479228605E-02 -3.97126754532648E-30 -8.46537126473939E-02  5.30208513689806E-31  1.68867881356524E-02
 N29      -2.21206896734349E-30  6.60632151993394E-03  5.63488583128817E-30 -9.18186667667248E-02  1.02855492386216E-30  2.45813959229039E-02
 N41       2.18036936416509E-30 -1.66958866854031E-02  4.77283958818045E-30 -8.10119205046160E-02 -6.94851449810610E-30 -2.04976671198950E-02
 N42       3.76724736655106E-30  7.10693546867702E-04  1.18393333447965E-30 -1.07946834924226E-01 -2.13065629747560E-30 -2.02728416984650E-02
 N43       6.50610431575605E-30  2.18696199311490E-02  4.30560898367210E-30 -9.48106091260704E-02 -2.74346313165531E-30 -8.68825492897712E-03
 N44      -1.44478449603069E-30  2.16186654908176E-02  3.01928037381587E-30 -8.67306224874686E-02 -3.51644715189728E-31  2.97078853616893E-03
 N45       2.08174971395032E-31 -7.12468053678600E-03 -3.92889708654996E-31 -8.75491663076056E-02 -3.91204519953657E-31  2.07789560118861E-02
 N46      -2.43117359117292E-30 -4.58109841570954E-03 -1.05175034262987E-30 -8.51713461528768E-02 -3.28433648241216E-30  2.86143550363571E-02
 N47       3.53295340326887E-30 -1.60469373536880E-02  8.16154083861471E-31 -1.06839343293275E-01 -2.67612092765344E-30 -5.12681976743518E-03
 N48       3.62065199895078E-30 -1.68769699923726E-02  6.30549463792381E-31 -1.04759408731066E-01  2.19554809953930E-30  2.88956103449077E-03
 N64      -6.95899476688681E-29  1.83900409375812E-04 -5.10130052042921E-29  4.26760383453173E+02  3.80839485981289E-29  1.60948402593432E-02
 N65       6.34016137692278E-30  4.94039374419578E-02 -1.03340778583953E-28  4.26686431038206E+02  2.30302702749826E-29 -7.58794128710820E-02
 N110     -2.63672648919575E-30  1.26851533941691E-01 -2.20881053461883E-29  4.26724315529720E+02  7.52192483033175E-29 -1.05124418474166E-01
 N111      1.54278544125084E-29  1.86033641672796E-01 -6.46865942281230E-29  4.26697840725620E+02 -3.60745937883173E-29  3.90241891023296E-03
 N121     -2.01891865692711E-29 -8.96694093667626E-02 -4.73316543132607E-29  4.26613429212750E+02  2.58190168344553E-29  1.55053117192609E-01
 N122     -6.62818420010589E-30 -2.90995210410473E-02  4.89093761237027E-29  4.26573285260432E+02 -9.39861516580749E-29  2.08305173574434E-01
 N123     -2.80601939974538E-29 -3.34617338409849E-02 -1.80311064050517E-30  4.26794736313131E+02 -8.60860420527683E-30 -2.85466936868545E-02
 N124     -4.01271355772969E-29 -1.47672048763399E-01 -4.73316543132607E-29  4.26688096305308E+02 -1.67473571656567E-29  1.02342804990747E-01
 N248      2.38912572566209E-30 -1.46622493569805E-02  4.48587602646675E-31 -1.19542881665533E-01 -1.38198503629564E-30 -1.09217472502300E-03
 N249      1.69369242278559E-30  5.89809845157304E-04  1.58666997726056E-30 -1.27644157410086E-01 -1.19358026818826E-30 -2.51851369542602E-03
 N250     -2.45975817462431E-30 -3.91252535790961E-03  1.08738004660103E-30 -1.09527547741839E-01 -3.75037025902649E-31  7.67149778734942E-03
 N251      1.48087963307175E-30 -7.58035273536546E-03  1.46178082778991E-30 -1.18859728404178E-01  6.04887889223158E-31  2.38155444305551E-03
 N302     -1.82002064933295E-29 -2.15696710276257E-02 -4.53595020502082E-29  4.26671121652952E+02  3.30356207808201E-29 -2.55575647844501E-02
 N303      1.79193116171177E-29  3.90367453207785E-02 -4.94352833938501E-29  4.26747346214569E+02  5.56549698280433E-29 -7.34712066434256E-02
 N304      1.44155753599178E-29 -4.28012367382821E-05 -2.83989925879564E-29  4.26862917727942E+02 -5.24541976403588E-29  1.71532643719734E-02
 N305     -5.83141322547043E-30 -2.99106011429821E-02 -2.02849947056832E-30  4.26850586443023E+02 -1.24488053395665E-29  3.73428471156536E-02
 

 ------>
 CHAMP AUX NOEUDS DE NOM SYMBOLIQUE  PRAC_NOEU                                   
 NUMERO D'ORDRE: 1 FREQ:   6.80000000000000E+01                                  
 NOEUD        PRES_R       PRES_I  
 N1       -5.94537909473522E-15 -9.70954090416049E+01
 N2       -5.94557823779272E-15 -9.70986612945423E+01
 N3        1.73849500884075E-14  2.83917781037138E+02
 N4        1.73854312484886E-14  2.83925638977589E+02
 N18       1.73859777176508E-14  2.83934563496276E+02
 N19       1.73850595302953E-14  2.83919568358802E+02
 N28      -5.94542974384099E-15 -9.70962362042742E+01
 N29      -5.94566220063046E-15 -9.71000325117422E+01
 N41      -5.94550674062010E-15 -9.70974936571032E+01
 N42      -5.94575278733565E-15 -9.71015119049070E+01
 N43      -5.94577343404619E-15 -9.71018490912786E+01
 N44      -5.94563957183846E-15 -9.70996629555239E+01
 N45      -5.94556982123279E-15 -9.70985238416877E+01
 N46      -5.94551010922303E-15 -9.70975486705640E+01
 N47      -5.94556410105393E-15 -9.70984304240776E+01
 N48      -5.94563050807437E-15 -9.70995149330231E+01
 N64       1.73859704144800E-14  2.83934444226446E+02
 N65       1.73856889332800E-14  2.83929847289596E+02
 N110      1.73857768088088E-14  2.83931282405890E+02
 N111      1.73855746381563E-14  2.83927980708573E+02
 N121      1.73855297285881E-14  2.83927247279667E+02
 N122      1.73854121651640E-14  2.83925327323247E+02
 N123      1.73859993657940E-14  2.83934917037284E+02
 N124      1.73855641579985E-14  2.83927809554608E+02
 N248     -5.94586694992126E-15 -9.71033763214177E+01
 N249     -5.94601961373725E-15 -9.71058695107373E+01
 N250     -5.94585933775572E-15 -9.71032520053202E+01
 N251     -5.94583887976399E-15 -9.71029179009607E+01
 N302      1.73854889504632E-14  2.83926581322349E+02
 N303      1.73861514935138E-14  2.83937401471488E+02
 N304      1.73863158829671E-14  2.83940086154998E+02
 N305      1.73862381105676E-14  2.83938816035326E+02
 
   
   !----------------------------------------------------------------------------------------------------------------!
   ! <EXCEPTION> <MATRICE0_12>                                                                                      !
   !                                                                                                                !
   !  Une des charges renseignées pour l'assemblage des vecteurs est déjà présente dans le mot-clé                  !
   !  CHARGE définissant les conditions de Dirichlet. Il est interdit de renseigner plus d'une fois la même charge. !
   !----------------------------------------------------------------------------------------------------------------!
   

 --------------------------------------------------------------------------------
 ASTER 11.03.00 CONCEPT Pr_5 CALCULE LE 24/06/2016 A 16:25:04 DE TYPE ACOU_HARMO 

                    ENTITES TOPOLOGIQUES SELECTIONNEES 
 GROUP_MA : ENTREE SORTIE                                                        


 ======>

 ------>
 CHAMP AUX NOEUDS DE NOM SYMBOLIQUE  INTE_NOEU                                   
 NUMERO D'ORDRE: 1 FREQ:   8.00000000000000E+01                                  
 NOEUD        INTX_R       INTX_I       INTY_R       INTY_I       INTZ_R       INTZ_I  
 N1       -8.64261062543772E-31 -1.05885623069418E-02 -2.23099724757817E-30 -7.23749544065677E-02 -2.65412405636005E-30 -1.44936905454875E-02
 N2       -1.83406308603996E-30  1.23449627602354E-02  7.53038608255409E-30 -8.19466509582011E-02  3.78060048083214E-31 -1.52920026908732E-02
 N3       -7.04181617426194E-29  3.10022957006824E-01 -4.10207670714926E-29  5.54459393809811E+02 -9.23706816207229E-29 -3.90658264920973E-01
 N4       -8.38164711797325E-30 -2.93480953311061E-01  2.52435489670724E-29  5.54589183574231E+02  8.07041683896027E-30 -2.96665587982606E-01
 N18      -3.51597770647334E-29  2.08458067781100E-01 -2.83989925879564E-29  5.54709459902942E+02  1.41586184309086E-29  1.74668164044830E-01
 N19      -1.96937892393261E-29 -2.42232425712467E-01 -3.15544362088405E-29  5.54330951069284E+02 -1.24122333055869E-28  2.51591809759911E-01
 N28      -4.81578782594028E-30 -1.16203174408586E-02  1.92824106032050E-30 -7.51453207281909E-02 -5.31364071656438E-31  1.49901899286832E-02
 N29      -1.24655815650464E-31  5.86594132943625E-03 -8.27552837803751E-30 -8.15082158701641E-02 -1.43064997579822E-30  2.18190295036491E-02
 N41      -2.33841599022637E-30 -1.48192077196082E-02  2.12641925159795E-30 -7.19132984118725E-02  5.66464144892896E-31 -1.81953328019170E-02
 N42      -4.47775502186792E-30  6.32062744174601E-04  2.62375856090354E-30 -9.58251016439717E-02  2.03357337886228E-30 -1.79957577387502E-02
 N43      -1.20129880281154E-30  1.94141043388194E-02  1.31078792014995E-30 -8.41650518811145E-02  3.50143693539321E-30 -7.71219935134628E-03
 N44      -2.48950519436355E-30  1.91914045092235E-02 -7.09454813613926E-30 -7.69922262714579E-02  6.31411317442494E-30  2.63744450453034E-03
 N45      -1.01956323843430E-30 -6.32337805658678E-03 -1.14361720097714E-30 -7.77166776374777E-02 -1.18073950065520E-30  1.84450928386420E-02
 N46       1.96731938259833E-30 -4.06540158488998E-03 -1.03326141516375E-30 -7.56056704360540E-02 -2.50240892499095E-30  2.53998521806346E-02
 N47       2.70400564191968E-31 -1.42431301733602E-02  8.96823035246376E-31 -9.48392414815073E-02  1.46472474927633E-30 -4.55133123530980E-03
 N48      -4.55193542355923E-31 -1.49805369118069E-02 -1.75259624939238E-30 -9.29932925176386E-02 -1.27677118250721E-30  2.56546942902016E-03
 N64       3.63017251264254E-29  4.55275944004509E-04  4.62798397729660E-29  5.54604159630305E+02 -1.23324998058892E-29  3.18916362684622E-02
 N65      -3.42642196405933E-29  9.86077120460432E-02  3.78653234506086E-29  5.54458711078876E+02 -5.45939509475561E-29 -1.51270108375046E-01
 N110     -6.02112466186855E-29  2.52980361906216E-01  1.68290326447149E-29  5.54533934787731E+02  9.41548631212032E-30 -2.09086811353454E-01
 N111     -1.15231470060599E-28  3.70583438265319E-01  4.89093761237027E-29  5.54481906894164E+02  2.36533808343648E-29  8.06922164933825E-03
 N121     -1.94142405078983E-29 -1.78993207820062E-01 -1.73549399148623E-29  5.54314221310110E+02 -4.35984317090605E-29  3.09214320674114E-01
 N122      2.19250753763960E-29 -5.81157658824070E-02  7.57306469012171E-29  5.54234671258791E+02 -9.67764389615031E-29  4.15198796351189E-01
 N123     -4.42491759239840E-29 -6.73956509531346E-02 -9.01555320252585E-31  5.54672627455501E+02  6.49302518793729E-30 -5.60341892809029E-02
 N124     -6.10766311403635E-29 -2.94575100625499E-01 -5.52202633654708E-29  5.54462957619739E+02 -6.17033287442671E-29  2.04265198531502E-01
 N248     -6.97051824772072E-31 -1.30134809591169E-02  2.03116275654855E-30 -1.06119755099509E-01  5.04300038914067E-30 -9.69227307186015E-04
 N249     -3.27675498511185E-30  5.24378331894080E-04 -1.33209166830402E-30 -1.13312893599740E-01  4.61667259567066E-30 -2.23507289059534E-03
 N250      1.76760818547676E-31 -3.47200634931107E-03 -3.57326036567640E-30 -9.72300751008739E-02  1.92712935165171E-30  6.80928702894423E-03
 N251      1.44130829278993E-30 -6.72700186177753E-03 -1.51333155263468E-30 -1.05512526706179E-01 -8.14898700675530E-31  2.11396076980614E-03
 N302      6.39505038033782E-30 -4.28371195263328E-02  3.39210189245035E-29  5.54428586893254E+02 -2.27044029283922E-29 -5.08031672205487E-02
 N303     -5.07086581186533E-29  7.81214369332733E-02  2.26140126163357E-29  5.54577806968338E+02 -8.33245565731036E-31 -1.46220091092462E-01
 N304     -8.36381195344529E-30 -1.83480649052385E-04  1.97215226305253E-30  5.54807639804895E+02 -8.98434883847601E-30  3.47367894515806E-02
 N305      3.41552670323108E-30 -5.99827957754133E-02  4.50777660126292E-31  5.54783616828765E+02 -3.02792504793768E-29  7.52432503720913E-02
 

 ------>
 CHAMP AUX NOEUDS DE NOM SYMBOLIQUE  PRAC_NOEU                                   
 NUMERO D'ORDRE: 1 FREQ:   8.00000000000000E+01                                  
 NOEUD        PRES_R       PRES_I  
 N1       -5.16440211845922E-15 -8.43410871127066E+01
 N2       -5.16464148867653E-15 -8.43449963250196E+01
 N3        2.25682746849283E-14  3.68567895668223E+02
 N4        2.25691439856041E-14  3.68582092425630E+02
 N18       2.25701270061557E-14  3.68598146369548E+02
 N19       2.25684673404775E-14  3.68571041972110E+02
 N28      -5.16446300961754E-15 -8.43420815407877E+01
 N29      -5.16474243420171E-15 -8.43466448905530E+01
 N41      -5.16455556660182E-15 -8.43435931110517E+01
 N42      -5.16485135470684E-15 -8.43484236973927E+01
 N43      -5.16487616099202E-15 -8.43488288147734E+01
 N44      -5.16471521883214E-15 -8.43462004298384E+01
 N45      -5.16463140784313E-15 -8.43448316925164E+01
 N46      -5.16455959843087E-15 -8.43436589558170E+01
 N47      -5.16462455012091E-15 -8.43447196974135E+01
 N48      -5.16470438089014E-15 -8.43460234328136E+01
 N64       2.25701173368646E-14  3.68597988458041E+02
 N65       2.25696087481804E-14  3.68589682574507E+02
 N110      2.25697666067308E-14  3.68592260600277E+02
 N111      2.25694000830892E-14  3.68586274814957E+02
 N121      2.25693169493630E-14  3.68584917138177E+02
 N122      2.25691056552852E-14  3.68581466444018E+02
 N123      2.25701672409662E-14  3.68598803453867E+02
 N124      2.25693789014617E-14  3.68585928892729E+02
 N248     -5.16498861301888E-15 -8.43506652957398E+01
 N249     -5.16517213408309E-15 -8.43536624221658E+01
 N250     -5.16497944511107E-15 -8.43505155724431E+01
 N251     -5.16495487903709E-15 -8.43501143780089E+01
 N302      2.25692490727865E-14  3.68583808629558E+02
 N303      2.25704437675853E-14  3.68603319476272E+02
 N304      2.25707378647931E-14  3.68608122448165E+02
 N305      2.25705974414528E-14  3.68605829160984E+02
 
   
   !----------------------------------------------------------------------------------------------------------------!
   ! <EXCEPTION> <MATRICE0_12>                                                                                      !
   !                                                                                                                !
   !  Une des charges renseignées pour l'assemblage des vecteurs est déjà présente dans le mot-clé                  !
   !  CHARGE définissant les conditions de Dirichlet. Il est interdit de renseigner plus d'une fois la même charge. !
   !----------------------------------------------------------------------------------------------------------------!
   

 --------------------------------------------------------------------------------
 ASTER 11.03.00 CONCEPT Pr_6 CALCULE LE 24/06/2016 A 16:25:04 DE TYPE ACOU_HARMO 

                    ENTITES TOPOLOGIQUES SELECTIONNEES 
 GROUP_MA : ENTREE SORTIE                                                        


 ======>

 ------>
 CHAMP AUX NOEUDS DE NOM SYMBOLIQUE  INTE_NOEU                                   
 NUMERO D'ORDRE: 1 FREQ:   9.20000000000000E+01                                  
 NOEUD        INTX_R       INTX_I       INTY_R       INTY_I       INTZ_R       INTZ_I  
 N1        2.40144204765644E-30 -9.68358423677620E-03 -3.32569582796788E-30 -6.61962889903592E-02  3.45935536610835E-30 -1.32569096380774E-02
 N2        1.90262619206015E-30  1.12921111722076E-02  1.81499637959053E-30 -7.49538513798310E-02  6.67623615221835E-31 -1.39865728509147E-02
 N3        4.62099927136496E-29  5.37972033666534E-01 -3.15544362088405E-29  6.80821786782390E+02  1.46601787366756E-28 -6.77602032979948E-01
 N4       -2.91755275415334E-29 -5.09102174473409E-01 -6.31088724176809E-29  6.81043940144973E+02 -3.08641829167721E-29 -5.13938132926262E-01
 N18      -8.81698432260254E-29  3.61457020667042E-01 -2.68212707775144E-29  6.81250542132709E+02 -8.06772053703813E-30  3.03380934132692E-01
 N19      -3.80871905802020E-30 -4.20417851936356E-01 -3.78653234506086E-29  6.80598843734119E+02 -2.03686350918394E-29  4.36578138976718E-01
 N28      -2.05978207552215E-30 -1.06276146835284E-02  3.22015486701546E-30 -6.87305048628007E-02  2.63948698878271E-30  1.37106976524412E-02
 N29       5.44628914148405E-31  5.36694470415944E-03  1.63107006990155E-30 -7.45531146799996E-02  5.57147458786922E-31  1.99549937026759E-02
 N41       1.14980425092348E-30 -1.35526922789530E-02 -1.30809161822781E-30 -6.57751503833084E-02  1.07599298580484E-30 -1.66420629868219E-02
 N42       1.13019988903124E-31  5.79376776120308E-04 -1.31695089597199E-30 -8.76480979242062E-02  1.09360722008789E-30 -1.64595222520485E-02
 N43       2.45724586779506E-31  1.77577692773900E-02  1.02016509154192E-30 -7.69841597207420E-02  4.00136020070753E-31 -7.05365007864043E-03
 N44      -5.23034424646964E-31  1.75541516997849E-02  8.33157293941918E-31 -7.04232298663291E-02 -6.51301358943153E-31  2.41265743114415E-03
 N45       6.47256906059940E-31 -5.78246254688075E-03  2.63621290787725E-30 -7.10835508562229E-02  1.09698562219866E-30  1.68705726135714E-02
 N46      -2.22832501978034E-30 -3.71714140241630E-03  3.64751872167499E-30 -6.91524675899905E-02  1.29152862070608E-30  2.32310407752545E-02
 N47       6.99284527843316E-31 -1.30257718871779E-02 -1.02899685600118E-30 -8.67434601891038E-02  9.20501656080494E-31 -4.16318814500632E-03
 N48       8.80246281082186E-31 -1.37008716809887E-02  3.02563594263235E-31 -8.50554798401900E-02  7.86947012338777E-31  2.34696347345847E-03
 N64       2.42389839080800E-29  8.78886703298882E-04 -2.41917344267777E-29  6.81067447374005E+02  2.14795114837620E-29  5.51385984352635E-02
 N65      -1.86946167841780E-29  1.71255182285189E-01  2.83989925879564E-29  6.80817064234206E+02  1.14682194840460E-28 -2.62538141403221E-01
 N110      8.80648158463915E-29  4.39142614784687E-01 -4.62798397729660E-29  6.80947300609188E+02  4.15261310888998E-29 -3.62393889258811E-01
 N111     -1.41222279846094E-28  6.42850614142199E-01  2.05103835357463E-29  6.80857791145065E+02  4.29770785607526E-29  1.42789494667746E-02
 N121      5.35408524539652E-29 -3.10875542975708E-01 -6.31088724176809E-30  6.80567379930851E+02  3.52422068663532E-29  5.36733791006814E-01
 N122      4.74098470690028E-29 -1.00967675454624E-01  6.31088724176809E-30  6.80429823759328E+02 -2.53945418747123E-29  7.20485663739263E-01
 N123      1.91221732318320E-29 -1.17665628831095E-01  4.50777660126292E-30  6.81186261611041E+02  2.72200483291422E-29 -9.63708813099430E-02
 N124     -5.14747148096265E-29 -5.11415873095864E-01 -4.89093761237027E-29  6.80825391737414E+02 -2.22610538551943E-29  3.54725845791149E-01
 N248      5.59068573906449E-31 -1.19005703574287E-02 -1.58688923697731E-30 -9.70650985965968E-02 -4.80986107746298E-31 -8.86197973156457E-04
 N249     -2.90682087990938E-31  4.80482606827386E-04 -3.45897018011948E-31 -1.03646110909123E-01 -4.85362123821320E-31 -2.04368052130561E-03
 N250     -6.43112717518893E-31 -3.17448985893936E-03  1.14466270580409E-30 -8.89350570097035E-02  5.54005785565141E-32  6.22743520335859E-03
 N251     -2.96397609175657E-31 -6.15070947469044E-03  1.11581961211315E-30 -9.65088485751857E-02  4.12776941507820E-31  1.93340092691127E-03
 N302      5.67449739541936E-29 -7.41773728415644E-02 -2.91878534931774E-29  6.80765196774226E+02  5.90849306883755E-29 -8.80309547002655E-02
 N303     -7.65557152893926E-33  1.35885752739510E-01 -1.47254035641256E-29  6.81021329329825E+02  8.95448930086531E-29 -2.53527113612356E-01
 N304     -1.50306268475802E-29 -4.20765255353728E-04 -4.37817802397662E-29  6.81419619683653E+02  2.71199945489510E-29  6.08179623745918E-02
 N305      7.17189623403434E-29 -1.04460748626194E-01  5.86010958164180E-30  6.81378502703783E+02  1.60154006119711E-29  1.31379556869579E-01
 

 ------>
 CHAMP AUX NOEUDS DE NOM SYMBOLIQUE  PRAC_NOEU                                   
 NUMERO D'ORDRE: 1 FREQ:   9.20000000000000E+01                                  
 NOEUD        PRES_R       PRES_I  
 N1       -4.60573019549805E-15 -7.52172822189179E+01
 N2       -4.60601244336063E-15 -7.52218916763185E+01
 N3        2.76784894876104E-14  4.52024036757067E+02
 N4        2.76799041209161E-14  4.52047139472180E+02
 N18       2.76814998569569E-14  4.52073199819407E+02
 N19       2.76787983047377E-14  4.52029080123489E+02
 N28      -4.60580200878011E-15 -7.52184550188158E+01
 N29      -4.60613150120087E-15 -7.52238360384044E+01
 N41      -4.60591115449148E-15 -7.52202375035526E+01
 N42      -4.60625998053086E-15 -7.52259342650945E+01
 N43      -4.60628921508379E-15 -7.52264117015757E+01
 N44      -4.60609938954176E-15 -7.52233116152135E+01
 N45      -4.60600060595475E-15 -7.52216983568098E+01
 N46      -4.60591588487495E-15 -7.52203147565774E+01
 N47      -4.60599254443908E-15 -7.52215667022679E+01
 N48      -4.60608668798572E-15 -7.52231041830616E+01
 N64       2.76814873471325E-14  4.52072995518471E+02
 N65       2.76806596800711E-14  4.52059478689586E+02
 N110      2.76809157281920E-14  4.52063660272735E+02
 N111      2.76803181432013E-14  4.52053900969217E+02
 N121      2.76801809812717E-14  4.52051660944914E+02
 N122      2.76798382141357E-14  4.52046063132774E+02
 N123      2.76815662932327E-14  4.52074284806129E+02
 N124      2.76802815189921E-14  4.52053302850491E+02
 N248     -4.60642187311719E-15 -7.52285781716714E+01
 N249     -4.60663829372560E-15 -7.52321125884282E+01
 N250     -4.60641103819942E-15 -7.52284012240357E+01
 N251     -4.60638210521434E-15 -7.52279287125313E+01
 N302      2.76800759647084E-14  4.52049945894283E+02
 N303      2.76820178954744E-14  4.52081660030430E+02
 N304      2.76824937749467E-14  4.52089431731994E+02
 N305      2.76822653340526E-14  4.52085701009076E+02
 
   
   !----------------------------------------------------------------------------------------------------------------!
   ! <EXCEPTION> <MATRICE0_12>                                                                                      !
   !                                                                                                                !
   !  Une des charges renseignées pour l'assemblage des vecteurs est déjà présente dans le mot-clé                  !
   !  CHARGE définissant les conditions de Dirichlet. Il est interdit de renseigner plus d'une fois la même charge. !
   !----------------------------------------------------------------------------------------------------------------!
   

 --------------------------------------------------------------------------------
 ASTER 11.03.00 CONCEPT Pr_7 CALCULE LE 24/06/2016 A 16:25:04 DE TYPE ACOU_HARMO 

                    ENTITES TOPOLOGIQUES SELECTIONNEES 
 GROUP_MA : ENTREE SORTIE                                                        


 ======>

 ------>
 CHAMP AUX NOEUDS DE NOM SYMBOLIQUE  INTE_NOEU                                   
 NUMERO D'ORDRE: 1 FREQ:   1.04000000000000E+02                                  
 NOEUD        INTX_R       INTX_I       INTY_R       INTY_I       INTZ_R       INTZ_I  
 N1        2.04543389743646E-30 -9.07419113711065E-03  8.33542479930796E-31 -6.20380415982228E-02  4.09934188662823E-31 -1.24247368170326E-02
 N2        1.65369974674810E-30  1.05838866371720E-02  2.39585685081772E-30 -7.02486874727000E-02  3.65830392936355E-31 -1.31080341453622E-02
 N3       -9.36895584466392E-29  8.57078920217766E-01  1.32528632077130E-28  8.08474846479567E+02  1.09386657865373E-28 -1.07922586180075E+00
 N4        6.15188246555948E-29 -8.10904814190875E-01 -6.31088724176809E-30  8.08825395710603E+02 -1.25619936180624E-28 -8.17872079917937E-01
 N18      -4.74595360615680E-29  5.75570795994570E-01 -4.89093761237027E-29  8.09152187103523E+02 -1.77376221948120E-29  4.83632840541771E-01
 N19       7.90401649176522E-29 -6.69878056100323E-01  1.13595970351826E-28  8.08119566198855E+02 -8.93939642986779E-29  6.95519657213510E-01
 N28       8.93727790692897E-31 -9.95930099962026E-03  9.23676001328118E-31 -6.44134468379680E-02 -1.78543335494419E-30  1.28496727847845E-02
 N29       4.50210198624821E-31  5.03171057289902E-03  9.47076050152423E-31 -6.98734119076976E-02 -8.56406879489318E-32  1.87000512314394E-02
 N41       2.44862733129393E-30 -1.26998624125123E-02 -2.58922021723420E-30 -6.16445381612235E-02  1.98635599639239E-30 -1.55967337820191E-02
 N42       4.52705882844423E-31  5.44342167017124E-04 -4.27042866335463E-31 -8.21461636114053E-02  9.97214426371304E-31 -1.54256559173675E-02
 N43       6.39480963909477E-31  1.66434032544254E-02  3.34206623249517E-30 -7.21528387833604E-02  2.99494143414368E-31 -6.61039312470143E-03
 N44      -1.81145748331772E-30  1.64526514038299E-02  2.06825616727745E-30 -6.60035659910631E-02 -1.06437120229668E-30  2.26149964143841E-03
 N45      -4.00376761313801E-31 -5.41806461454709E-03  1.37819546820351E-30 -6.66199699515231E-02  5.46073361606696E-31  1.58109663882056E-02
 N46      -4.68843570836768E-31 -3.48236460133739E-03  1.55403287212606E-30 -6.48098780379657E-02 -9.62290896713082E-31  2.17712894613085E-02
 N47       2.36393456198950E-30 -1.22060173836291E-02 -7.16335886172372E-31 -8.12952132462635E-02  1.44848159369180E-30 -3.90210151230622E-03
 N48      -2.93246908157261E-31 -1.28393988380600E-02 -5.25778874817715E-32 -7.97136721288664E-02  1.74404993526417E-31  2.20007818645950E-03
 N64       7.28545915175989E-29  1.49464497057855E-03  2.20881053461883E-29  8.08860089765850E+02 -5.14007590997621E-29  8.76091481448436E-02
 N65       4.66799196200801E-29  2.72999478976216E-01 -1.10440526730942E-29  8.08463400285615E+02  5.35670451012088E-29 -4.18331740933984E-01
 N110     -9.65327446258733E-29  6.99799824675266E-01  4.83834688535554E-29  8.08670555861638E+02 -2.27876031019898E-29 -5.76919637491477E-01
 N111     -2.51010301511877E-28  1.02393887623752E+00 -1.10440526730942E-29  8.08528810710312E+02  3.48688653466337E-29  2.30203271006199E-02
 N121     -6.68174431185930E-29 -4.95574531983104E-01 -1.30950910266688E-28  8.08066746971465E+02 -7.29203299263673E-29  8.55268313444164E-01
 N122      1.08271159241584E-28 -1.60994221347990E-01 -2.25614218893209E-28  8.07848143933854E+02 -3.86880807228508E-29  1.14783833561898E+00
 N123      5.03400669395332E-29 -1.88242037355325E-01 -1.17202191632836E-29  8.09049387772820E+02  7.57557390170640E-29 -1.52618938902630E-01
 N124     -3.01246258181274E-29 -8.15042161945845E-01  3.15544362088405E-30  8.08477712471618E+02  4.86655533927433E-29  5.65408317289265E-01
 N248      1.06058915736839E-30 -1.11509336791351E-02 -1.33174203794489E-30 -9.09729033792393E-02 -4.34756566843713E-31 -8.30223622542952E-04
 N249     -4.08097147792792E-31  4.51230085664977E-04  1.17896542287951E-30 -9.71426024045225E-02  3.21148818226572E-32 -1.91467890705369E-03
 N250     -6.00821359436518E-32 -2.97389196586606E-03  1.50084969237605E-30 -8.33543396582931E-02 -1.05636913533578E-30  5.83566918040372E-03
 N251      1.57326408509158E-31 -5.76219755813970E-03  8.69043788572334E-31 -9.04506765344572E-02  6.46658563762114E-32  1.81185451755652E-03
 N302      1.24412185512499E-28 -1.18007463141281E-01 -3.86541843558296E-29  8.08381221115297E+02  3.55813631295597E-29 -1.40129954314598E-01
 N303     -7.86987938350095E-30  2.16844916471343E-01 -9.99223813279948E-30  8.08786174249930E+02 -7.59490473569106E-30 -4.03716131437523E-01
 N304     -1.53106615753924E-29 -7.85262668778361E-04 -5.20648197445868E-29  8.09420128050106E+02  2.45681494097001E-29  9.74546282306879E-02
 N305     -3.07637044002449E-29 -1.66832167955547E-01 -8.29430894632378E-29  8.09355245174949E+02  1.53595664393374E-29  2.10168839176819E-01
 

 ------>
 CHAMP AUX NOEUDS DE NOM SYMBOLIQUE  PRAC_NOEU                                   
 NUMERO D'ORDRE: 1 FREQ:   1.04000000000000E+02                                  
 NOEUD        PRES_R       PRES_I  
 N1       -4.19366084042547E-15 -6.84876789511112E+01
 N2       -4.19398915263652E-15 -6.84930406964123E+01
 N3        3.28222043906441E-14  5.36027276003109E+02
 N4        3.28243530326689E-14  5.36062365990300E+02
 N18       3.28267728178168E-14  5.36101884080734E+02
 N19       3.28226687798811E-14  5.36034860054891E+02
 N28      -4.19374439371821E-15 -6.84890434799337E+01
 N29      -4.19412768144041E-15 -6.84953030434660E+01
 N41      -4.19387136493343E-15 -6.84911170772404E+01
 N42      -4.19427719327986E-15 -6.84977447571022E+01
 N43      -4.19431117889482E-15 -6.84982997843146E+01
 N44      -4.19409030077458E-15 -6.84946925708652E+01
 N45      -4.19397544849082E-15 -6.84928168907288E+01
 N46      -4.19387683592840E-15 -6.84912064253687E+01
 N47      -4.19396610395313E-15 -6.84926642828473E+01
 N48      -4.19407562937372E-15 -6.84944529687062E+01
 N64       3.28267569626724E-14  5.36101625146575E+02
 N65       3.28254998328193E-14  5.36081094658046E+02
 N110      3.28258879011144E-14  5.36087432294259E+02
 N111      3.28249791822104E-14  5.36072591788332E+02
 N121      3.28247689479323E-14  5.36069158402017E+02
 N122      3.28242494764556E-14  5.36060674788994E+02
 N123      3.28268745647829E-14  5.36103545734791E+02
 N124      3.28249213077189E-14  5.36071646626159E+02
 N248     -4.19446557074572E-15 -6.85008211945860E+01
 N249     -4.19471734680067E-15 -6.85049330096027E+01
 N250     -4.19445293461505E-15 -6.85006148309115E+01
 N251     -4.19441932408807E-15 -6.85000659293505E+01
 N302      3.28246149505060E-14  5.36066643433188E+02
 N303      3.28275621511470E-14  5.36114774872278E+02
 N304      3.28282822202035E-14  5.36126534492391E+02
 N305      3.28279353117305E-14  5.36120869047085E+02
 
   
   !----------------------------------------------------------------------------------------------------------------!
   ! <EXCEPTION> <MATRICE0_12>                                                                                      !
   !                                                                                                                !
   !  Une des charges renseignées pour l'assemblage des vecteurs est déjà présente dans le mot-clé                  !
   !  CHARGE définissant les conditions de Dirichlet. Il est interdit de renseigner plus d'une fois la même charge. !
   !----------------------------------------------------------------------------------------------------------------!
   

 --------------------------------------------------------------------------------
 ASTER 11.03.00 CONCEPT Pr_8 CALCULE LE 24/06/2016 A 16:25:04 DE TYPE ACOU_HARMO 

                    ENTITES TOPOLOGIQUES SELECTIONNEES 
 GROUP_MA : ENTREE SORTIE                                                        


 ======>

 ------>
 CHAMP AUX NOEUDS DE NOM SYMBOLIQUE  INTE_NOEU                                   
 NUMERO D'ORDRE: 1 FREQ:   1.16000000000000E+02                                  
 NOEUD        INTX_R       INTX_I       INTY_R       INTY_I       INTZ_R       INTZ_I  
 N1       -4.86778793443874E-31 -8.68034826090909E-03 -2.35656787995222E-30 -5.93535091170982E-02  2.73385755605768E-31 -1.18877174099032E-02
 N2       -8.97483354084452E-31  1.01270900876751E-02 -1.96444854327498E-30 -6.72123031729152E-02  2.00277454916829E-30 -1.25408768794466E-02
 N3        2.91477941503342E-28  1.28894173317592E+00 -9.46633086265214E-29  9.39475010640124E+02 -1.83169804406826E-28 -1.62268841134083E+00
 N4       -2.34809378819692E-29 -1.21929532033076E+00  1.13595970351826E-28  9.39998265470950E+02 -2.80908437968545E-29 -1.22894557176100E+00
 N18       8.46900730025066E-29  8.65263638045558E-01  1.07285083110058E-28  9.40486922961131E+02  6.61924788516393E-29  7.27645980283041E-01
 N19       1.09380494889551E-28 -1.00750254323196E+00 -2.39813715187188E-28  9.38940558084461E+02  2.22150626481223E-28  1.04592186120817E+00
 N28      -6.01371625134914E-31 -9.52756570504029E-03  6.57127297024925E-31 -6.16265348041282E-02 -5.91549382418539E-31  1.22938942991889E-02
 N29      -1.17523856325155E-31  4.81601763984699E-03  1.15151351374913E-30 -6.68535769876330E-02  3.80280886050336E-32  1.78893198041716E-02
 N41       4.30926825056644E-33 -1.21487078015165E-02 -2.60693877272256E-30 -5.89783008671761E-02  3.67780397005048E-31 -1.49219053358153E-02
 N42      -1.68759611376932E-31  5.22247954819076E-04 -1.43058076269084E-30 -7.85956381425103E-02  4.81482486096809E-34 -1.47582262269928E-02
 N43       8.46879544795677E-31  1.59244090973071E-02 -7.50727492322145E-31 -6.90355401670685E-02  5.80041951000826E-31 -6.32416436823995E-03
 N44       1.93854478552297E-30  1.57419921750680E-02  1.15411351917405E-30 -6.31518451867957E-02 -3.66781320846397E-31  2.16406725458359E-03
 N45      -3.23195118792483E-32 -5.18236475143862E-03 -5.64875252688776E-31 -6.37389597371971E-02 -3.79937829778992E-31  1.51269515401415E-02
 N46      -1.19821731490052E-30 -3.33030248885459E-03  9.37927882916584E-32 -6.20068579861888E-02  1.43135113466859E-30  2.08287130583693E-02
 N47      -2.96001675809858E-31 -1.16762067913865E-02 -1.26363014979739E-30 -7.77781408920720E-02  6.52339985448877E-32 -3.73371165895868E-03
 N48      -1.45581044496231E-30 -1.22829204372113E-02  5.31749257645316E-31 -7.62654724618493E-02  8.92187046737387E-32  2.10546015796529E-03
 N64       8.30527757591182E-29  2.35312322883722E-03  2.52435489670724E-29  9.40047203275754E+02  1.04711270332379E-28  1.31460590942769E-01
 N65       2.65517946596957E-28  4.10748723140655E-01 -7.88860905221012E-29  9.39453203727703E+02 -3.94307193094065E-29 -6.29216593395275E-01
 N110      2.35310634186551E-28  1.05261731827497E+00 -1.13595970351826E-28  9.39764344942578E+02 -7.31339797548646E-29 -8.67159771765397E-01
 N111      5.81322694413843E-29  1.53961473976811E+00  9.15078650056374E-29  9.39552181794644E+02  2.02678126592507E-29  3.48914042901812E-02
 N121      1.48482265364456E-28 -7.45624278687754E-01 -4.73316543132607E-29  9.38857979760818E+02  1.62363598031622E-28  1.28638122720385E+00
 N122      1.00912566110069E-28 -2.42276831819442E-01  1.07285083110058E-28  9.38529882262890E+02  5.38490012450671E-29  1.72616184875492E+00
 N123      3.71966405739173E-29 -2.83992197305882E-01  0.00000000000000E+00  9.40331892535852E+02  2.95287981199038E-29 -2.28500480557834E-01
 N124      1.37338834706232E-28 -1.22603492797897E+00 -1.45150406560666E-28  9.39475921540567E+02  4.90457319637653E-29  8.50582724260734E-01
 N248     -3.32923472424069E-31 -1.06661731568581E-02 -1.05317553078872E-30 -8.70418056124288E-02 -3.25303034070287E-31 -7.93968498098536E-04
 N249      4.73993581582288E-31  4.32703166050146E-04 -8.10253542449436E-31 -9.29467661542647E-02 -3.24630306972195E-31 -1.83115556955083E-03
 N250     -3.11572475494168E-31 -2.84393059809907E-03  3.71704479266737E-31 -7.97537458330024E-02  3.17830888023272E-31  5.58252650806198E-03
 N251     -6.15116445480209E-31 -5.51055194583435E-03 -6.01403723967321E-31 -8.65411909112388E-02  5.96583005961341E-31  1.73334891657700E-03
 N302      1.21817957877409E-28 -1.77275232842023E-01 -2.99767143983984E-29  9.39330154336600E+02  9.13002497576324E-29 -2.10628863055250E-01
 N303      1.57845318233840E-28  3.26521899635099E-01 -2.73471780476617E-29  9.39935512670406E+02 -1.49525990998984E-29 -6.06952370854494E-01
 N304      5.65961597548032E-29 -1.31765606713771E-03  4.81205152184817E-29  9.40888207174022E+02  8.86528183078291E-29  1.47168379673209E-01
 N305      1.32652661965549E-28 -2.51366068443930E-01 -2.16373276860620E-29  9.40791351355586E+02  9.09461537807144E-29  3.17021084297399E-01
 

 ------>
 CHAMP AUX NOEUDS DE NOM SYMBOLIQUE  PRAC_NOEU                                   
 NUMERO D'ORDRE: 1 FREQ:   1.16000000000000E+02                                  
 NOEUD        PRES_R       PRES_I  
 N1       -3.88401720419539E-15 -6.34308146136438E+01
 N2       -3.88439536700413E-15 -6.34369904809878E+01
 N3        3.80788345211294E-14  6.21874560855283E+02
 N4        3.80819413454149E-14  6.21925299146318E+02
 N18       3.80854361224173E-14  6.21982373186030E+02
 N19       3.80795011271282E-14  6.21885447357403E+02
 N28      -3.88411346957353E-15 -6.34323867465755E+01
 N29      -3.88455498169501E-15 -6.34395971867089E+01
 N41      -3.88425973599931E-15 -6.34347754585843E+01
 N42      -3.88472727811544E-15 -6.34424110007905E+01
 N43      -3.88476639796528E-15 -6.34430498764217E+01
 N44      -3.88451188871065E-15 -6.34388934248668E+01
 N45      -3.88437966631560E-15 -6.34367340692854E+01
 N46      -3.88426599700118E-15 -6.34348777085044E+01
 N47      -3.88436894520223E-15 -6.34365589802167E+01
 N48      -3.88449512301608E-15 -6.34386196202959E+01
 N64       3.80854164076852E-14  6.21982051220022E+02
 N65       3.80835986726125E-14  6.21952365353468E+02
 N110      3.80841589229676E-14  6.21961514936115E+02
 N111      3.80828439283683E-14  6.21940039444566E+02
 N121      3.80825378959872E-14  6.21935041556500E+02
 N122      3.80817880722083E-14  6.21922796004894E+02
 N123      3.80855839624561E-14  6.21984787597090E+02
 N124      3.80827577486493E-14  6.21938632022948E+02
 N248     -3.88494434032005E-15 -6.34459558956085E+01
 N249     -3.88523439036339E-15 -6.34506927722907E+01
 N250     -3.88492974294465E-15 -6.34457175023770E+01
 N251     -3.88489108656716E-15 -6.34450861958236E+01
 N302      3.80823211291705E-14  6.21931501485732E+02
 N303      3.80865800089301E-14  6.22001054270464E+02
 N304      3.80876182876600E-14  6.22018010648917E+02
 N305      3.80871167291337E-14  6.22009819576573E+02
 
   
   !----------------------------------------------------------------------------------------------------------------!
   ! <EXCEPTION> <MATRICE0_12>                                                                                      !
   !                                                                                                                !
   !  Une des charges renseignées pour l'assemblage des vecteurs est déjà présente dans le mot-clé                  !
   !  CHARGE définissant les conditions de Dirichlet. Il est interdit de renseigner plus d'une fois la même charge. !
   !----------------------------------------------------------------------------------------------------------------!
   

 --------------------------------------------------------------------------------
 ASTER 11.03.00 CONCEPT Pr_9 CALCULE LE 24/06/2016 A 16:25:04 DE TYPE ACOU_HARMO 

                    ENTITES TOPOLOGIQUES SELECTIONNEES 
 GROUP_MA : ENTREE SORTIE                                                        


 ======>

 ------>
 CHAMP AUX NOEUDS DE NOM SYMBOLIQUE  INTE_NOEU                                   
 NUMERO D'ORDRE: 1 FREQ:   1.28000000000000E+02                                  
 NOEUD        INTX_R       INTX_I       INTY_R       INTY_I       INTZ_R       INTZ_I  
 N1       -3.27311794048611E-31 -8.45446667566287E-03 -4.14460124032133E-31 -5.78177259896707E-02  6.49038391258498E-31 -1.15807986756664E-02
 N2       -1.43096594867972E-31  9.86633881925453E-03  1.28729157482843E-30 -6.54768896336965E-02 -8.97483354084452E-31 -1.22164416370790E-02
 N3        4.29621044554349E-29  1.86025368409313E+00 -6.31088724176809E-29  1.07562879940767E+03  1.57180535365287E-28 -2.34154999223638E+00
 N4       -7.50896974157251E-29 -1.75948948215373E+00 -1.38839519318898E-28  1.07637920488037E+03 -1.25416557978497E-28 -1.77244693254931E+00
 N18       8.82877101386219E-29  1.24840578989264E+00 -1.57772181044202E-28  1.07708098645888E+03 -7.74300874841444E-29  1.05053023874403E+00
 N19      -1.59855266872052E-28 -1.45416620091391E+00  1.13595970351826E-28  1.07485720888699E+03 -1.02243768887630E-28  1.50941469102692E+00
 N28       4.08297148210094E-31 -9.28020309783701E-03 -1.50145498464429E-30 -6.00323804304675E-02 -1.93815959953409E-30  1.19760660637876E-02
 N29      -3.48472949312565E-33  4.69360717462631E-03  1.76222589911432E-31 -6.51277820987540E-02  2.04573181472474E-30  1.74247718038436E-02
 N41      -6.04019778808447E-32 -1.18326273590596E-02  2.03859684613389E-31 -5.74535950985266E-02  5.06134389384966E-31 -1.45358830168570E-02
 N42       5.12618353531069E-32  5.10313179123463E-04  5.28218386080606E-31 -7.65664249682247E-02  2.81474661372195E-31 -1.43764344528589E-02
 N43       1.68109610020701E-31  1.55136638909475E-02  6.53082844141712E-31 -6.72545521953607E-02 -3.22984470204816E-31 -6.16032850898321E-03
 N44      -1.00697247142287E-30  1.53360541743903E-02 -2.25141210498868E-31 -6.15225419202245E-02 -1.03004150103798E-31  2.10853503821772E-03
 N45       4.83276008357520E-31 -5.04692211459422E-03 -7.30890413894956E-31 -6.20916403334908E-02 -7.74560875383937E-31  1.47357156678484E-02
 N46       3.55412315643436E-31 -3.24264776297327E-03  1.16499502335984E-30 -6.04039928627840E-02  1.61898485950052E-30  2.02892470182666E-02
 N47      -3.03540315877888E-31 -1.13723246525841E-02  3.66146795712933E-31 -7.57664421496261E-02  1.36362718383846E-31 -3.63760079682419E-03
 N48      -1.15885612166210E-30 -1.19641388453873E-02 -3.10074721046345E-31 -7.42933853149835E-02 -7.40580248927654E-31  2.05161340880020E-03
 N64      -1.40629350213882E-28  3.51879065471026E-03  4.83834688535554E-29  1.07644585701297E+03 -2.46637156584822E-29  1.89349561632375E-01
 N65       1.92931958108936E-29  5.93045653314919E-01  2.08259278978347E-28  1.07559170161439E+03  3.53771760368558E-28 -9.08256030216072E-01
 N110     -7.41816856446113E-29  1.51943305764624E+00 -2.39813715187188E-28  1.07604026131525E+03  4.64462401201611E-29 -1.25102483426364E+00
 N111      1.67765446339639E-28  2.22171708287595E+00 -3.91275008989622E-28  1.07573528573871E+03 -5.48135069612162E-29  5.06320295986500E-02
 N121     -7.44202441670561E-29 -1.07652316153411E+00  1.26217744835362E-28  1.07473418739672E+03  1.02151324250299E-29  1.85672315718022E+00
 N122      1.21393675510661E-28 -3.49864053094044E-01  7.25752032803331E-29  1.07426148360904E+03 -1.69309271783060E-28  2.49117511992422E+00
 N123     -6.13805979121577E-29 -4.10952178710818E-01  7.21244256202068E-29  1.07685674058061E+03 -6.86058066383811E-29 -3.28597052102382E-01
 N124     -2.19306413139352E-28 -1.76983714141862E+00  7.57306469012171E-29  1.07562591108682E+03 -3.05514118938036E-29  1.22788724693842E+00
 N248      2.89533474483240E-31 -1.03877707700709E-02  1.29191380669496E-31 -8.47955394568138E-02 -2.58285787757026E-31 -7.73067646794972E-04
 N249     -4.50356495226366E-31  4.22586387480287E-04  4.14163827117612E-31 -9.05501260258579E-02 -2.29874553708343E-31 -1.78304856535163E-03
 N250     -5.79317147901219E-31 -2.76896663442520E-03  2.53122221262322E-33 -7.76969570243115E-02  5.14063374182795E-31  5.43740948574492E-03
 N251      1.06005892478058E-31 -5.36547843856244E-03 -3.74529176518504E-31 -8.43068141390390E-02 -1.87790770877196E-31  1.68838871462369E-03
 N302      8.30688251753214E-29 -2.55619712961724E-01  2.24036497082767E-28  1.07541477799093E+03  6.40976448511294E-29 -3.03889872805852E-01
 N303      6.75080976460665E-29  4.71752430295281E-01 -6.52125014982703E-29  1.07628399415719E+03  1.16742041113647E-28 -8.75799676909265E-01
 N304      1.52161790634394E-28 -2.07191777066043E-03 -4.02319061662716E-29  1.07765810381581E+03 -1.00148212663390E-28  2.13084463783912E-01
 N305      5.17107787942386E-29 -3.63349307995225E-01  1.42445740599908E-28  1.07751918752582E+03 -7.14123818064819E-29  4.58639335685114E-01
 

 ------>
 CHAMP AUX NOEUDS DE NOM SYMBOLIQUE  PRAC_NOEU                                   
 NUMERO D'ORDRE: 1 FREQ:   1.28000000000000E+02                                  
 NOEUD        PRES_R       PRES_I  
 N1       -3.64938027337749E-15 -5.95989027353574E+01
 N2       -3.64981274684658E-15 -5.96059655630950E+01
 N3        4.35165288999913E-14  7.10678849286001E+02
 N4        4.35208586671466E-14  7.10749559749758E+02
 N18       4.35257246179557E-14  7.10829026757102E+02
 N19       4.35174525796522E-14  7.10693934119630E+02
 N28      -3.64949039631765E-15 -5.96007011794514E+01
 N29      -3.64999535061816E-15 -5.96089477089955E+01
[...]
 * ASSEMBLAGE               :       0.06 :       0.00 :       0.06 :       0.06 *
 * DYNA_VIBRA               :       0.03 :       0.00 :       0.03 :       0.02 *
 * CALC_CHAMP               :       0.06 :       0.00 :       0.06 :       0.06 *
 * IMPR_RESU                :       0.00 :       0.00 :       0.00 :       0.01 *
 * DETRUIRE                 :       0.02 :       0.00 :       0.02 :       0.01 *
 * ASSEMBLAGE               :       0.06 :       0.00 :       0.06 :       0.06 *
 * DYNA_VIBRA               :       0.03 :       0.00 :       0.03 :       0.03 *
 * CALC_CHAMP               :       0.06 :       0.00 :       0.06 :       0.06 *
 * IMPR_RESU                :       0.00 :       0.00 :       0.00 :       0.01 *
 * DETRUIRE                 :       0.02 :       0.00 :       0.02 :       0.01 *
 * ASSEMBLAGE               :       0.06 :       0.00 :       0.06 :       0.07 *
 * DYNA_VIBRA               :       0.03 :       0.00 :       0.03 :       0.02 *
 * CALC_CHAMP               :       0.06 :       0.00 :       0.06 :       0.06 *
 * IMPR_RESU                :       0.00 :       0.00 :       0.00 :       0.01 *
 * DETRUIRE                 :       0.01 :       0.01 :       0.02 :       0.01 *
 * ASSEMBLAGE               :       0.06 :       0.00 :       0.06 :       0.06 *
 * DYNA_VIBRA               :       0.02 :       0.01 :       0.03 :       0.03 *
 * CALC_CHAMP               :       0.06 :       0.00 :       0.06 :       0.06 *
 * IMPR_RESU                :       0.00 :       0.00 :       0.00 :       0.00 *
 * DETRUIRE                 :       0.01 :       0.00 :       0.01 :       0.02 *
 * ASSEMBLAGE               :       0.06 :       0.00 :       0.06 :       0.06 *
 * DYNA_VIBRA               :       0.03 :       0.00 :       0.03 :       0.02 *
 * CALC_CHAMP               :       0.06 :       0.00 :       0.06 :       0.06 *
 * IMPR_RESU                :       0.00 :       0.00 :       0.00 :       0.01 *
 * DETRUIRE                 :       0.01 :       0.01 :       0.02 :       0.02 *
 * ASSEMBLAGE               :       0.06 :       0.00 :       0.06 :       0.06 *
 * DYNA_VIBRA               :       0.03 :       0.00 :       0.03 :       0.03 *
 * CALC_CHAMP               :       0.05 :       0.00 :       0.05 :       0.06 *
 * IMPR_RESU                :       0.01 :       0.00 :       0.01 :       0.00 *
 * DETRUIRE                 :       0.01 :       0.00 :       0.01 :       0.02 *
 * ASSEMBLAGE               :       0.06 :       0.00 :       0.06 :       0.06 *
 * DYNA_VIBRA               :       0.03 :       0.00 :       0.03 :       0.02 *
 * CALC_CHAMP               :       0.05 :       0.01 :       0.06 :       0.07 *
 * IMPR_RESU                :       0.01 :       0.00 :       0.01 :       0.00 *
 * DETRUIRE                 :       0.01 :       0.00 :       0.01 :       0.02 *
 * ASSEMBLAGE               :       0.06 :       0.00 :       0.06 :       0.06 *
 * DYNA_VIBRA               :       0.03 :       0.00 :       0.03 :       0.03 *
 * CALC_CHAMP               :       0.06 :       0.00 :       0.06 :       0.06 *
 * IMPR_RESU                :       0.01 :       0.00 :       0.01 :       0.00 *
 * DETRUIRE                 :       0.01 :       0.00 :       0.01 :       0.02 *
 * ASSEMBLAGE               :       0.05 :       0.00 :       0.05 :       0.06 *
 * DYNA_VIBRA               :       0.03 :       0.00 :       0.03 :       0.03 *
 * CALC_CHAMP               :       0.05 :       0.01 :       0.06 :       0.06 *
 * IMPR_RESU                :       0.01 :       0.00 :       0.01 :       0.00 *
 * DETRUIRE                 :       0.01 :       0.00 :       0.01 :       0.02 *
 * ASSEMBLAGE               :       0.06 :       0.00 :       0.06 :       0.06 *
 * DYNA_VIBRA               :       0.03 :       0.00 :       0.03 :       0.03 *
 * CALC_CHAMP               :       0.06 :       0.00 :       0.06 :       0.06 *
 * IMPR_RESU                :       0.00 :       0.00 :       0.00 :       0.00 *
 * DETRUIRE                 :       0.02 :       0.00 :       0.02 :       0.02 *
 * ASSEMBLAGE               :       0.06 :       0.00 :       0.06 :       0.06 *
 * DYNA_VIBRA               :       0.02 :       0.01 :       0.03 :       0.03 *
 * CALC_CHAMP               :       0.05 :       0.01 :       0.06 :       0.06 *
 * IMPR_RESU                :       0.00 :       0.00 :       0.00 :       0.00 *
 * DETRUIRE                 :       0.02 :       0.00 :       0.02 :       0.02 *
 * ASSEMBLAGE               :       0.06 :       0.00 :       0.06 :       0.06 *
 * DYNA_VIBRA               :       0.02 :       0.00 :       0.02 :       0.03 *
 * CALC_CHAMP               :       0.05 :       0.00 :       0.05 :       0.06 *
 * IMPR_RESU                :       0.00 :       0.00 :       0.00 :       0.00 *
 * DETRUIRE                 :       0.02 :       0.00 :       0.02 :       0.02 *
 * ASSEMBLAGE               :       0.06 :       0.00 :       0.06 :       0.06 *
 * DYNA_VIBRA               :       0.02 :       0.01 :       0.03 :       0.03 *
 * CALC_CHAMP               :       0.06 :       0.00 :       0.06 :       0.06 *
 * IMPR_RESU                :       0.00 :       0.00 :       0.00 :       0.00 *
 * DETRUIRE                 :       0.02 :       0.00 :       0.02 :       0.02 *
 * ASSEMBLAGE               :       0.06 :       0.00 :       0.06 :       0.06 *
 * DYNA_VIBRA               :       0.03 :       0.00 :       0.03 :       0.03 *
 * CALC_CHAMP               :       0.06 :       0.01 :       0.07 :       0.06 *
 * IMPR_RESU                :       0.00 :       0.00 :       0.00 :       0.00 *
 * DETRUIRE                 :       0.02 :       0.00 :       0.02 :       0.02 *
 * ASSEMBLAGE               :       0.06 :       0.00 :       0.06 :       0.06 *
 * DYNA_VIBRA               :       0.03 :       0.00 :       0.03 :       0.03 *
 * CALC_CHAMP               :       0.05 :       0.01 :       0.06 :       0.06 *
 * IMPR_RESU                :       0.00 :       0.00 :       0.00 :       0.01 *
 * DETRUIRE                 :       0.02 :       0.00 :       0.02 :       0.01 *
 * ASSEMBLAGE               :       0.06 :       0.00 :       0.06 :       0.06 *
 * DYNA_VIBRA               :       0.03 :       0.00 :       0.03 :       0.03 *
 * CALC_CHAMP               :       0.05 :       0.01 :       0.06 :       0.06 *
 * IMPR_RESU                :       0.00 :       0.00 :       0.00 :       0.01 *
 * DETRUIRE                 :       0.02 :       0.00 :       0.02 :       0.01 *
 * ASSEMBLAGE               :       0.06 :       0.00 :       0.06 :       0.06 *
 * DYNA_VIBRA               :       0.03 :       0.00 :       0.03 :       0.03 *
 * CALC_CHAMP               :       0.06 :       0.00 :       0.06 :       0.06 *
 * IMPR_RESU                :       0.00 :       0.00 :       0.00 :       0.01 *
 * DETRUIRE                 :       0.02 :       0.00 :       0.02 :       0.01 *
 * ASSEMBLAGE               :       0.06 :       0.00 :       0.06 :       0.06 *
 * DYNA_VIBRA               :       0.02 :       0.00 :       0.02 :       0.02 *
 * CALC_CHAMP               :       0.06 :       0.01 :       0.07 :       0.06 *
 * IMPR_RESU                :       0.00 :       0.00 :       0.00 :       0.01 *
 * DETRUIRE                 :       0.02 :       0.00 :       0.02 :       0.01 *
 * ASSEMBLAGE               :       0.05 :       0.00 :       0.05 :       0.06 *
 * DYNA_VIBRA               :       0.03 :       0.00 :       0.03 :       0.03 *
 * CALC_CHAMP               :       0.06 :       0.00 :       0.06 :       0.06 *
 * IMPR_RESU                :       0.01 :       0.00 :       0.01 :       0.00 *
 * DETRUIRE                 :       0.01 :       0.00 :       0.01 :       0.02 *
 * ASSEMBLAGE               :       0.06 :       0.00 :       0.06 :       0.06 *
 * DYNA_VIBRA               :       0.02 :       0.01 :       0.03 :       0.02 *
 * CALC_CHAMP               :       0.06 :       0.00 :       0.06 :       0.06 *
 * IMPR_RESU                :       0.00 :       0.00 :       0.00 :       0.00 *
 * DETRUIRE                 :       0.02 :       0.00 :       0.02 :       0.02 *
 * ASSEMBLAGE               :       0.06 :       0.00 :       0.06 :       0.06 *
 * DYNA_VIBRA               :       0.04 :       0.00 :       0.04 :       0.04 *
 * CALC_CHAMP               :       0.06 :       0.01 :       0.07 :       0.06 *
 * IMPR_RESU                :       0.00 :       0.00 :       0.00 :       0.00 *
 * DETRUIRE                 :       0.02 :       0.00 :       0.02 :       0.02 *
 * ASSEMBLAGE               :       0.06 :       0.00 :       0.06 :       0.06 *
 * DYNA_VIBRA               :       0.02 :       0.01 :       0.03 :       0.02 *
 * CALC_CHAMP               :       0.05 :       0.01 :       0.06 :       0.06 *
 * IMPR_RESU                :       0.00 :       0.00 :       0.00 :       0.00 *
 * DETRUIRE                 :       0.01 :       0.00 :       0.01 :       0.02 *
 * ASSEMBLAGE               :       0.06 :       0.00 :       0.06 :       0.06 *
 * DYNA_VIBRA               :       0.03 :       0.00 :       0.03 :       0.03 *
 * CALC_CHAMP               :       0.06 :       0.00 :       0.06 :       0.06 *
 * IMPR_RESU                :       0.00 :       0.00 :       0.00 :       0.00 *
 * DETRUIRE                 :       0.02 :       0.00 :       0.02 :       0.02 *
 * ASSEMBLAGE               :       0.06 :       0.00 :       0.06 :       0.06 *
 * DYNA_VIBRA               :       0.03 :       0.00 :       0.03 :       0.03 *
 * CALC_CHAMP               :       0.06 :       0.00 :       0.06 :       0.06 *
 * IMPR_RESU                :       0.00 :       0.00 :       0.00 :       0.01 *
 * DETRUIRE                 :       0.02 :       0.00 :       0.02 :       0.01 *
 * ASSEMBLAGE               :       0.06 :       0.00 :       0.06 :       0.06 *
 * DYNA_VIBRA               :       0.02 :       0.00 :       0.02 :       0.03 *
 * CALC_CHAMP               :       0.06 :       0.00 :       0.06 :       0.06 *
 * IMPR_RESU                :       0.01 :       0.00 :       0.01 :       0.01 *
 * DETRUIRE                 :       0.01 :       0.00 :       0.01 :       0.01 *
 * ASSEMBLAGE               :       0.06 :       0.00 :       0.06 :       0.06 *
 * DYNA_VIBRA               :       0.03 :       0.00 :       0.03 :       0.03 *
 * CALC_CHAMP               :       0.05 :       0.00 :       0.05 :       0.06 *
 * IMPR_RESU                :       0.01 :       0.00 :       0.01 :       0.01 *
 * DETRUIRE                 :       0.01 :       0.00 :       0.01 :       0.01 *
 * ASSEMBLAGE               :       0.06 :       0.00 :       0.06 :       0.06 *
 * DYNA_VIBRA               :       0.03 :       0.00 :       0.03 :       0.02 *
 * CALC_CHAMP               :       0.06 :       0.00 :       0.06 :       0.06 *
 * IMPR_RESU                :       0.01 :       0.00 :       0.01 :       0.01 *
 * DETRUIRE                 :       0.01 :       0.00 :       0.01 :       0.01 *
 * ASSEMBLAGE               :       0.07 :       0.00 :       0.07 :       0.07 *
 * DYNA_VIBRA               :       0.03 :       0.00 :       0.03 :       0.03 *
 * CALC_CHAMP               :       0.05 :       0.00 :       0.05 :       0.06 *
 * IMPR_RESU                :       0.00 :       0.00 :       0.00 :       0.00 *
 * DETRUIRE                 :       0.02 :       0.00 :       0.02 :       0.02 *
 * ASSEMBLAGE               :       0.06 :       0.00 :       0.06 :       0.06 *
 * DYNA_VIBRA               :       0.03 :       0.00 :       0.03 :       0.03 *
 * CALC_CHAMP               :       0.05 :       0.01 :       0.06 :       0.06 *
 * IMPR_RESU                :       0.00 :       0.00 :       0.00 :       0.01 *
 * DETRUIRE                 :       0.02 :       0.00 :       0.02 :       0.01 *
 * ASSEMBLAGE               :       0.06 :       0.00 :       0.06 :       0.06 *
 * DYNA_VIBRA               :       0.03 :       0.00 :       0.03 :       0.03 *
 * CALC_CHAMP               :       0.06 :       0.00 :       0.06 :       0.06 *
 * IMPR_RESU                :       0.01 :       0.00 :       0.01 :       0.01 *
 * DETRUIRE                 :       0.01 :       0.00 :       0.01 :       0.01 *
 * ASSEMBLAGE               :       0.06 :       0.00 :       0.06 :       0.06 *
 * DYNA_VIBRA               :       0.03 :       0.00 :       0.03 :       0.04 *
 * CALC_CHAMP               :       0.05 :       0.01 :       0.06 :       0.06 *
 * IMPR_RESU                :       0.01 :       0.00 :       0.01 :       0.00 *
 * DETRUIRE                 :       0.01 :       0.00 :       0.01 :       0.02 *
 * ASSEMBLAGE               :       0.06 :       0.00 :       0.06 :       0.06 *
 * DYNA_VIBRA               :       0.03 :       0.00 :       0.03 :       0.03 *
 * CALC_CHAMP               :       0.06 :       0.00 :       0.06 :       0.06 *
 * IMPR_RESU                :       0.00 :       0.00 :       0.00 :       0.01 *
 * DETRUIRE                 :       0.02 :       0.00 :       0.02 :       0.01 *
 * ASSEMBLAGE               :       0.06 :       0.00 :       0.06 :       0.06 *
 * DYNA_VIBRA               :       0.03 :       0.00 :       0.03 :       0.03 *
 * CALC_CHAMP               :       0.06 :       0.00 :       0.06 :       0.06 *
 * IMPR_RESU                :       0.00 :       0.00 :       0.00 :       0.01 *
 * DETRUIRE                 :       0.02 :       0.00 :       0.02 :       0.01 *
 * ASSEMBLAGE               :       0.06 :       0.00 :       0.06 :       0.06 *
 * DYNA_VIBRA               :       0.03 :       0.00 :       0.03 :       0.03 *
 * CALC_CHAMP               :       0.06 :       0.00 :       0.06 :       0.06 *
 * IMPR_RESU                :       0.01 :       0.00 :       0.01 :       0.00 *
 * DETRUIRE                 :       0.01 :       0.00 :       0.01 :       0.02 *
 * ASSEMBLAGE               :       0.06 :       0.01 :       0.07 :       0.06 *
 * DYNA_VIBRA               :       0.03 :       0.00 :       0.03 :       0.03 *
 * CALC_CHAMP               :       0.06 :       0.00 :       0.06 :       0.06 *
 * IMPR_RESU                :       0.01 :       0.00 :       0.01 :       0.01 *
 * DETRUIRE                 :       0.01 :       0.00 :       0.01 :       0.01 *
 * ASSEMBLAGE               :       0.06 :       0.00 :       0.06 :       0.06 *
 * DYNA_VIBRA               :       0.03 :       0.00 :       0.03 :       0.03 *
 * CALC_CHAMP               :       0.05 :       0.00 :       0.05 :       0.06 *
 * IMPR_RESU                :       0.01 :       0.00 :       0.01 :       0.01 *
 * DETRUIRE                 :       0.01 :       0.00 :       0.01 :       0.01 *
 * ASSEMBLAGE               :       0.06 :       0.00 :       0.06 :       0.06 *
 * DYNA_VIBRA               :       0.02 :       0.01 :       0.03 :       0.04 *
 * CALC_CHAMP               :       0.06 :       0.00 :       0.06 :       0.06 *
 * IMPR_RESU                :       0.01 :       0.00 :       0.01 :       0.00 *
 * DETRUIRE                 :       0.01 :       0.00 :       0.01 :       0.02 *
 * ASSEMBLAGE               :       0.07 :       0.00 :       0.07 :       0.06 *
 * DYNA_VIBRA               :       0.03 :       0.00 :       0.03 :       0.03 *
 * CALC_CHAMP               :       0.05 :       0.00 :       0.05 :       0.06 *
 * IMPR_RESU                :       0.01 :       0.00 :       0.01 :       0.01 *
 * DETRUIRE                 :       0.01 :       0.00 :       0.01 :       0.01 *
 * ASSEMBLAGE               :       0.07 :       0.00 :       0.07 :       0.06 *
 * DYNA_VIBRA               :       0.03 :       0.00 :       0.03 :       0.03 *
 * CALC_CHAMP               :       0.06 :       0.01 :       0.07 :       0.07 *
 * IMPR_RESU                :       0.00 :       0.00 :       0.00 :       0.00 *
 * DETRUIRE                 :       0.02 :       0.00 :       0.02 :       0.02 *
 * ASSEMBLAGE               :       0.06 :       0.00 :       0.06 :       0.06 *
 * DYNA_VIBRA               :       0.03 :       0.00 :       0.03 :       0.03 *
 * CALC_CHAMP               :       0.05 :       0.01 :       0.06 :       0.06 *
 * IMPR_RESU                :       0.01 :       0.00 :       0.01 :       0.01 *
 * DETRUIRE                 :       0.01 :       0.00 :       0.01 :       0.01 *
 * ASSEMBLAGE               :       0.07 :       0.00 :       0.07 :       0.07 *
 * DYNA_VIBRA               :       0.02 :       0.00 :       0.02 :       0.03 *
 * CALC_CHAMP               :       0.06 :       0.01 :       0.07 :       0.06 *
 * IMPR_RESU                :       0.01 :       0.00 :       0.01 :       0.01 *
 * DETRUIRE                 :       0.01 :       0.00 :       0.01 :       0.01 *
 * ASSEMBLAGE               :       0.06 :       0.00 :       0.06 :       0.06 *
 * DYNA_VIBRA               :       0.03 :       0.00 :       0.03 :       0.04 *
 * CALC_CHAMP               :       0.05 :       0.01 :       0.06 :       0.06 *
 * IMPR_RESU                :       0.01 :       0.00 :       0.01 :       0.00 *
 * DETRUIRE                 :       0.01 :       0.00 :       0.01 :       0.02 *
 * ASSEMBLAGE               :       0.06 :       0.00 :       0.06 :       0.06 *
 * DYNA_VIBRA               :       0.03 :       0.00 :       0.03 :       0.03 *
 * CALC_CHAMP               :       0.06 :       0.00 :       0.06 :       0.06 *
 * IMPR_RESU                :       0.00 :       0.00 :       0.00 :       0.01 *
 * DETRUIRE                 :       0.02 :       0.00 :       0.02 :       0.01 *
 * ASSEMBLAGE               :       0.05 :       0.00 :       0.05 :       0.06 *
 * DYNA_VIBRA               :       0.02 :       0.00 :       0.02 :       0.03 *
 * CALC_CHAMP               :       0.06 :       0.01 :       0.07 :       0.06 *
 * IMPR_RESU                :       0.01 :       0.00 :       0.01 :       0.01 *
 * DETRUIRE                 :       0.01 :       0.00 :       0.01 :       0.01 *
 * ASSEMBLAGE               :       0.06 :       0.00 :       0.06 :       0.07 *
 * DYNA_VIBRA               :       0.03 :       0.00 :       0.03 :       0.03 *
 * CALC_CHAMP               :       0.07 :       0.00 :       0.07 :       0.06 *
 * IMPR_RESU                :       0.00 :       0.00 :       0.00 :       0.00 *
 * DETRUIRE                 :       0.02 :       0.00 :       0.02 :       0.02 *
 * ASSEMBLAGE               :       0.05 :       0.00 :       0.05 :       0.06 *
 * DYNA_VIBRA               :       0.03 :       0.00 :       0.03 :       0.03 *
 * CALC_CHAMP               :       0.06 :       0.00 :       0.06 :       0.06 *
 * IMPR_RESU                :       0.01 :       0.00 :       0.01 :       0.01 *
 * DETRUIRE                 :       0.01 :       0.00 :       0.01 :       0.01 *
 * ASSEMBLAGE               :       0.06 :       0.00 :       0.06 :       0.07 *
 * DYNA_VIBRA               :       0.03 :       0.00 :       0.03 :       0.02 *
 * CALC_CHAMP               :       0.06 :       0.01 :       0.07 :       0.06 *
 * IMPR_RESU                :       0.01 :       0.00 :       0.01 :       0.01 *
 * DETRUIRE                 :       0.01 :       0.00 :       0.01 :       0.02 *
 * ASSEMBLAGE               :       0.06 :       0.00 :       0.06 :       0.06 *
 * DYNA_VIBRA               :       0.03 :       0.00 :       0.03 :       0.03 *
 *  . part Superviseur      :       5.08 :       0.18 :       5.26 :       5.12 *
 *  . part Fortran          :      13.43 :       0.71 :      14.14 :      14.31 *
 * > 500 commandes...       :      27.31 :       1.50 :      28.81 :      30.81 *
 ********************************************************************************
 * TOTAL_JOB                :      45.83 :       2.39 :      48.22 :      50.26 *
 ********************************************************************************

