                                                                                
                                                                                
        -- CODE_ASTER -- VERSION : DÉVELOPPEMENT STABILISÉE (testing) --        
                                                                                
                          Version 11.3.0 du 12/12/2012                          
                         Copyright EDF R&D 1991 - 2016                          
                                                                                
                    Exécution du : Fri Jun 24 15:52:05 2016                     
                   Nom de la machine : liding-Precision-T3600                   
                              Architecture : 64bit                              
                          Type de processeur : x86_64                           
                Système d'exploitation : Linux 3.13.0-85-generic                
                        Langue des messages : en (UTF-8)                        
                                                                                
   
   !------------------------------------------------------------------------------------!
   ! <A> <SUPERVIS2_2>                                                                  !
   !                                                                                    !
   !     Vous utilisez une vieille version de Code_Aster.                               !
   !                                                                                    !
   !     En mettant à jour votre version, vous bénéficierez des dernières améliorations !
   !     apportées au code depuis 15 mois.                                              !
   !     Si vous avez des développements privés, vous risquez d'avoir un travail        !
   !     important de portage si vous ne suivez pas les mises à jour.                   !
   !                                                                                    !
   !                                                                                    !
   ! Ceci est une alarme. Si vous ne comprenez pas le sens de cette                     !
   ! alarme, vous pouvez obtenir des résultats inattendus !                             !
   !------------------------------------------------------------------------------------!
   
                           Parallélisme MPI : inactif                           
                          Parallélisme OpenMP : actif                           
                        Nombre de processus utilisés : 1                        
                      Version de la librairie HDF5 : 1.8.8                      
                      Version de la librairie MED : 3.0.6                       
                          Librairie MUMPS : installée                           
                    Version de la librairie SCOTCH : 5.1.10                     
                 Mémoire limite pour l'exécution : 20000.00 Mo                  
                   consommée par l'initialisation : 210.67 Mo                   
                 par les objets du jeu de commandes : 11.87 Mo                  
                reste pour l'allocation dynamique : 19777.46 Mo                 
                Taille limite des fichiers d'échange : 97.66 Go                 
                                                                                
   
   !----------------------------------------------------------------------------------------------------------------!
   ! <EXCEPTION> <MATRICE0_12>                                                                                      !
   !                                                                                                                !
   !  Une des charges renseignées pour l'assemblage des vecteurs est déjà présente dans le mot-clé                  !
   !  CHARGE définissant les conditions de Dirichlet. Il est interdit de renseigner plus d'une fois la même charge. !
   !----------------------------------------------------------------------------------------------------------------!
   

 --------------------------------------------------------------------------------
 ASTER 11.03.00 CONCEPT Pr_0 CALCULE LE 24/06/2016 A 15:52:05 DE TYPE ACOU_HARMO 

                    ENTITES TOPOLOGIQUES SELECTIONNEES 
 GROUP_MA : ENTREE SORTIE                                                        


 ======>

 ------>
 CHAMP AUX NOEUDS DE NOM SYMBOLIQUE  INTE_NOEU                                   
 NUMERO D'ORDRE: 1 FREQ:   2.00000000000000E+01                                  
 NOEUD        INTX_R       INTX_I       INTY_R       INTY_I       INTZ_R       INTZ_I  
 N1       -4.75945918989182E-29 -4.06765178466599E-03  5.11070547832430E-29 -2.77946216710475E-02 -2.48332777406693E-29 -5.56543544678964E-03
 N2       -2.17138971579939E-29  4.73964562338807E-03  1.50022238947988E-29 -3.14668336722175E-02  9.75021293645482E-30 -5.87262272379227E-03
 N3        9.89996602669308E-30  2.83987294962948E-03  9.46633086265214E-30 -3.40166607456885E+01 -2.56712378224100E-29 -3.54109693235969E-03
 N4       -2.85741799905227E-29 -2.66860375859278E-03 -3.54987407349455E-30 -3.40158528496808E+01 -1.38427418459048E-29 -2.61273654592002E-03
 N18      -1.38932072289788E-30  1.87564117937795E-03 -3.25405123403667E-30 -3.40149958120264E+01  1.23078922892678E-29  1.63663813920241E-03
 N19       3.47847022080640E-31 -2.22940914917766E-03  9.86076131526265E-30 -3.40178198278764E+01 -5.12985885162123E-30  2.30852167080543E-03
 N28      -1.34285465372400E-29 -4.46344792160486E-03 -3.60649641385954E-30 -2.88581092773485E-02  3.71829183230636E-29  5.75650742674487E-03
 N29      -1.15165795849496E-30  2.25056232690528E-03  2.91716756816446E-29 -3.12981314538748E-02 -1.64680551940030E-31  8.38094018407297E-03
 N41      -1.08689495299629E-29 -5.69282066989601E-03  2.21176202225861E-29 -2.76159786671980E-02  4.49345937562277E-30 -6.98758561356226E-03
 N42       1.62209042153584E-30  2.41181194389352E-04  2.77789715411934E-29 -3.67959299135569E-02 -6.48986230655838E-31 -6.91094548861601E-03
 N43      -1.94575498575227E-29  7.45444053529059E-03  6.68413246499034E-30 -3.23172026703266E-02  1.33086844815917E-29 -2.96195668166486E-03
 N44      -2.51108042456555E-29  7.36882984012022E-03  5.71471562748303E-30 -2.95631253905372E-02  4.35459681736692E-30  1.01242154195555E-03
 N45      -1.32410151274364E-29 -2.42973470152492E-03 -4.05543068389620E-30 -2.98441313320539E-02  2.66407750305389E-29  7.08341637909475E-03
 N46      -9.64527984714110E-30 -1.56272193028522E-03  2.37378569365504E-29 -2.90337849532412E-02 -9.41180297110168E-30  9.75498343396077E-03
 N47      -8.54773794071296E-30 -5.47161379861621E-03  8.39581645970696E-30 -3.64209156875437E-02  4.69037883411514E-30 -1.74738184937248E-03
 N48      -7.27898000243864E-30 -5.75401654080442E-03 -2.16864526562864E-30 -3.57115409132261E-02  1.72612073118814E-29  9.84613640458993E-04
 N64      -1.00636931430018E-29  1.52080126316480E-05 -5.25907270147341E-30 -3.40160227967503E+01  4.11516911872590E-30  2.70954681783502E-04
 N65      -3.83658184763751E-30  9.19800736034559E-04 -7.00114053383648E-30 -3.40171067542688E+01 -9.91677879325447E-30 -1.38794699286435E-03
 N110      1.00518938128269E-29  2.33502295550209E-03  1.91956153603780E-29 -3.40164510360495E+01  3.80603880551426E-30 -1.85858106089270E-03
 N111      2.32345994050199E-30  3.36964235383738E-03  6.40949485492072E-30 -3.40168228817218E+01  2.16758198631953E-29  1.12388902170966E-04
 N121      9.22624263022551E-30 -1.67264672378229E-03  1.95243074042200E-29 -3.40182779682175E+01 -9.49673648164916E-30  2.85534931003145E-03
 N122      3.19510122677796E-30 -5.46165131417278E-04  6.60671008122597E-30 -3.40189521324655E+01  7.55826993703017E-30  3.80787571721752E-03
 N123     -6.62697705473003E-30 -7.02676964570066E-04 -4.11334614865242E-30 -3.40153854278548E+01  3.18958357720320E-30 -4.05793786693709E-04
 N124      4.65060924055370E-30 -2.72830805294850E-03  1.14384831257047E-29 -3.40169267070496E+01  1.17324041093425E-30  1.90802970769233E-03
 N248     -1.82849835220690E-30 -5.00002725192578E-03  1.49119362990059E-29 -4.07479832630901E-02  1.11757785324315E-29 -3.72567107953170E-04
 N249     -1.81858157225624E-30  2.00318178638368E-04  1.17251503905038E-29 -4.35080248171311E-02  1.53030217446371E-29 -8.59061074516892E-04
 N250     -1.93255075846614E-30 -1.33473223713725E-03  2.00460005562272E-29 -3.73331373265808E-02 -2.51434926075107E-30  2.61567663428205E-03
 N251      6.73771695179461E-30 -2.58586331687304E-03 -3.56508892005521E-30 -4.05158373318559E-02  7.86767004970521E-30  8.11949613459427E-04
 N302     -1.31854787557725E-29 -3.73565507322346E-04 -1.02551917678732E-29 -3.40173347934921E+01  7.00793808852887E-30 -4.46812186696899E-04
 N303     -7.58714208446339E-32  7.53754643847959E-04  8.44738552674167E-30 -3.40163121417551E+01  5.07878357505823E-30 -1.31018077066063E-03
 N304     -6.21040560850161E-31 -1.32735147174514E-05  1.72563323017096E-30 -3.40142617628276E+01  1.62180656786199E-29  3.87647964003644E-04
 N305      3.20990229932713E-30 -5.94039787212347E-04  4.70499182756818E-30 -3.40144113571750E+01  6.95946287784478E-30  7.90906500718807E-04
 

 ------>
 CHAMP AUX NOEUDS DE NOM SYMBOLIQUE  PRAC_NOEU                                   
 NUMERO D'ORDRE: 1 FREQ:   2.00000000000000E+01                                  
 NOEUD        PRES_R       PRES_I  
 N1       -6.40062878854033E-15 -1.04530200756605E+02
 N2       -6.40064734446993E-15 -1.04530503797933E+02
 N3       -4.16758891871076E-15 -6.80618921571901E+01
 N4       -4.16759972674610E-15 -6.80620686658021E+01
 N18      -4.16761121749557E-15 -6.80622563239820E+01
 N19      -4.16759044631569E-15 -6.80619171048718E+01
 N28      -6.40063350596251E-15 -1.04530277797956E+02
 N29      -6.40065516396176E-15 -1.04530631499925E+02
 N41      -6.40064067919662E-15 -1.04530394945759E+02
 N42      -6.40066359825541E-15 -1.04530769242394E+02
 N43      -6.40066552413521E-15 -1.04530800694398E+02
 N44      -6.40065305829924E-15 -1.04530597111847E+02
 N45      -6.40064655360986E-15 -1.04530490882208E+02
 N46      -6.40064099625035E-15 -1.04530400123639E+02
 N47      -6.40064601730703E-15 -1.04530482123718E+02
 N48      -6.40065220329854E-15 -1.04530583148626E+02
 N64      -4.16761170911988E-15 -6.80622643528164E+01
 N65      -4.16760537598047E-15 -6.80621609248008E+01
 N110     -4.16760718426402E-15 -6.80621904563124E+01
 N111     -4.16760240161761E-15 -6.80621123497691E+01
 N121     -4.16760103235708E-15 -6.80620899880476E+01
 N122     -4.16759858273216E-15 -6.80620499826367E+01
 N123     -4.16761192735684E-15 -6.80622679168965E+01
 N124     -4.16760176980375E-15 -6.80621020314657E+01
 N248     -6.40067422939929E-15 -1.04530942862149E+02
 N249     -6.40068845095131E-15 -1.04531175117719E+02
 N250     -6.40067352343415E-15 -1.04530931332863E+02
 N251     -6.40067161267502E-15 -1.04530900127799E+02
 N302     -4.16760116440702E-15 -6.80620921445868E+01
 N303     -4.16761564277288E-15 -6.80623285942450E+01
 N304     -4.16761880824418E-15 -6.80623802903144E+01
 N305     -4.16761707855323E-15 -6.80623520423176E+01
 
   
   !----------------------------------------------------------------------------------------------------------------!
   ! <EXCEPTION> <MATRICE0_12>                                                                                      !
   !                                                                                                                !
   !  Une des charges renseignées pour l'assemblage des vecteurs est déjà présente dans le mot-clé                  !
   !  CHARGE définissant les conditions de Dirichlet. Il est interdit de renseigner plus d'une fois la même charge. !
   !----------------------------------------------------------------------------------------------------------------!
   

 --------------------------------------------------------------------------------
 ASTER 11.03.00 CONCEPT Pr_1 CALCULE LE 24/06/2016 A 15:52:05 DE TYPE ACOU_HARMO 

                    ENTITES TOPOLOGIQUES SELECTIONNEES 
 GROUP_MA : ENTREE SORTIE                                                        


 ======>

 ------>
 CHAMP AUX NOEUDS DE NOM SYMBOLIQUE  INTE_NOEU                                   
 NUMERO D'ORDRE: 1 FREQ:   3.20000000000000E+01                                  
 NOEUD        INTX_R       INTX_I       INTY_R       INTY_I       INTZ_R       INTZ_I  
 N1       -1.90975213285438E-30 -2.58096763563133E-03 -1.75163328442019E-30 -1.76365456147249E-02  4.18916244440959E-30 -3.53148488128509E-03
 N2       -2.96287470056963E-30  3.00753531922793E-03  3.87612660607375E-30 -1.99669197016784E-02 -8.02308711057696E-30 -3.72636468969758E-03
 N3       -4.36700853307883E-32  6.75194877131031E-05 -3.45126646034193E-31 -3.63681320228211E+00 -8.10312454609394E-32 -8.14601642469628E-05
 N4       -1.25708306272416E-31 -6.19958921166602E-05 -9.86076131526265E-32 -3.63683069292319E+00 -4.95814113222034E-33 -5.44359045924544E-05
 N18      -5.81214248007014E-32  4.21139839478054E-05 -1.60237371373018E-31 -3.63683011622774E+00  1.51136012322228E-31  4.15848991520894E-05
 N19       4.72191378747910E-32 -5.37705449024555E-05 -2.46519032881566E-31 -3.63683188765927E+00 -9.33887943931678E-32  5.51386401443297E-05
 N28      -4.03711027530022E-30 -2.83214125593423E-03 -3.57645190672710E-31 -1.83113899498630E-02 -1.64623676821360E-30  3.65269963020468E-03
 N29      -8.91795842217433E-32  1.42819470014298E-03  3.48935172499218E-30 -1.98598944733424E-02 -1.28930928737173E-30  5.31785723244776E-03
 N41       2.28337050500335E-31 -3.61215799964651E-03 -4.27301261936335E-30 -1.75232802465746E-02 -4.99363541924229E-31 -4.43384449561135E-03
 N42       3.19664247227773E-32  1.53139449408742E-04  1.82664825575407E-30 -2.33484442957724E-02 -6.24075931766809E-30 -4.38521371714971E-03
 N43      -3.71733368215902E-30  4.73015739306745E-03  1.13591348119959E-30 -2.05066092073819E-02 -3.73101380329525E-30 -1.87944040433788E-03
 N44      -3.21828912238183E-30  4.67584042891953E-03  1.83252234208445E-30 -1.87590258848976E-02  4.45309609696017E-31  6.42442608341858E-04
 N45       1.45004619682407E-30 -1.54165413096648E-03 -5.49780776749641E-30 -1.89371485898349E-02 -5.02735123033122E-30  4.49465771457006E-03
 N46       3.84794784357494E-31 -9.91499014795665E-04 -1.08815041857879E-32 -1.84229352336286E-02 -3.55609723462735E-30  6.18980423460364E-03
 N47      -1.87409491559830E-30 -3.47179355967654E-03  9.45356469844935E-32 -2.31102490310351E-02 -2.09027023437392E-31 -1.10880045726611E-03
 N48      -4.42674997717406E-30 -3.65103885436062E-03 -1.17337281861792E-30 -2.26601593850699E-02 -2.69596187513632E-30  6.24808652284018E-04
 N64      -7.19869605791967E-33  1.16967068045844E-06 -6.57384087684176E-32 -3.63686572806734E+00  3.64027849736081E-32  4.85942946946127E-06
 N65       6.38517246620899E-32  2.30911752569977E-05 -4.19082355898663E-31 -3.63686804863856E+00 -1.22409775084461E-31 -3.31929909259412E-05
 N110     -7.70748135947157E-32  5.68229657727194E-05 -1.97215226305253E-31 -3.63685479235584E+00 -4.51332780056598E-32 -4.00679650618602E-05
 N111     -1.42674921534445E-32  7.82774115023221E-05 -8.62816615085482E-32 -3.63684980697151E+00 -3.96394562611408E-32  5.45500110613328E-06
 N121      2.86056315173734E-32 -4.21956822573801E-05 -1.35585468084861E-31 -3.63687393563038E+00  2.47536540791638E-32  6.95431381497067E-05
 N122      1.52590686581371E-32 -1.40071356745302E-05 -8.62816615085482E-32 -3.63688580282450E+00  1.49011306283117E-31  9.08370208976214E-05
 N123     -7.09920400729556E-32 -2.29831685663523E-05 -1.97215226305253E-31 -3.63684587527746E+00 -3.20777496353923E-32 -1.78037638578020E-06
 N124     -1.04699871234520E-31 -6.70682057659915E-05 -2.83496887813801E-31 -3.63684286120782E+00 -6.13525531425806E-32  4.80411591948397E-05
 N248     -1.30749187160607E-30 -3.17251488732624E-03  1.78321853550814E-31 -2.58562410809659E-02 -1.72628960740855E-30 -2.36382368828318E-04
 N249     -2.62682399939836E-30  1.27178151012745E-04  5.71334525425337E-31 -2.76077301763011E-02 -2.58307575996932E-30 -5.45053852084785E-04
 N250     -2.97842927171479E-30 -8.46839398649131E-04  1.77049364123273E-30 -2.36894742959618E-02  3.79913755654687E-31  1.65968384673531E-03
 N251     -9.49141660172204E-31 -1.64064848753773E-03 -1.42634371681319E-30 -2.57088678534683E-02 -1.03406796102100E-30  5.15199694227843E-04
 N302      4.04551317911764E-32 -7.49814070230264E-06 -1.10933564796705E-31 -3.63686926192722E+00 -5.62335191598274E-32 -9.28865974970761E-06
 N303      5.98316436950837E-33  2.07314786340839E-05 -2.54736333977618E-31 -3.63687802768179E+00 -8.28812854900375E-32 -2.90432518375607E-05
 N304      1.10405647345015E-32 -1.17361895041333E-06 -4.31408307542741E-32 -3.63683084076065E+00  4.44191103311323E-33  1.42821934469261E-05
 N305     -3.97238920203603E-32 -1.74040145439159E-05 -6.69123089249965E-32 -3.63682799343948E+00 -3.30888124778663E-32  2.62413369810301E-05
 

 ------>
 CHAMP AUX NOEUDS DE NOM SYMBOLIQUE  PRAC_NOEU                                   
 NUMERO D'ORDRE: 1 FREQ:   3.20000000000000E+01                                  
 NOEUD        PRES_R       PRES_I  
 N1       -4.03079254582765E-15 -6.58278378489870E+01
 N2       -4.03082245856650E-15 -6.58283263610849E+01
 N3       -4.45418780811518E-16 -7.27424072184136E+00
 N4       -4.45422658676940E-16 -7.27430405218975E+00
 N18      -4.45425984871272E-16 -7.27435837306552E+00
 N19      -4.45418383536716E-16 -7.27423423385149E+00
 N28      -4.03080015093755E-15 -6.58279620498571E+01
 N29      -4.03083506480177E-15 -6.58285322365305E+01
 N41      -4.03081171471006E-15 -6.58281509005938E+01
 N42      -4.03084866268780E-15 -6.58287543068620E+01
 N43      -4.03085176678023E-15 -6.58288050005385E+01
 N44      -4.03083166972615E-15 -6.58284767907378E+01
 N45      -4.03082118525023E-15 -6.58283055662522E+01
 N46      -4.03081222505634E-15 -6.58281592351811E+01
 N47      -4.03082032149922E-15 -6.58282914601277E+01
 N48      -4.03083029392562E-15 -6.58284543222101E+01
 N64      -4.45426825982651E-16 -7.27437210945676E+00
 N65      -4.45424543504336E-16 -7.27433483375709E+00
 N110     -4.45425024033987E-16 -7.27434268140184E+00
 N111     -4.45423064164995E-16 -7.27431067431223E+00
 N121     -4.45422205839841E-16 -7.27429665679869E+00
 N122     -4.45421522798896E-16 -7.27428550189354E+00
 N123     -4.45426464118644E-16 -7.27436619976906E+00
 N124     -4.45422432456764E-16 -7.27430035773390E+00
 N248     -4.03086580194755E-15 -6.58290342122153E+01
 N249     -4.03088872836585E-15 -6.58294086290400E+01
 N250     -4.03086466311774E-15 -6.58290156137130E+01
 N251     -4.03086158398687E-15 -6.58289653276899E+01
 N302     -4.45423320081186E-16 -7.27431485374079E+00
 N303     -4.45428101653368E-16 -7.27439294274059E+00
 N304     -4.45428701192589E-16 -7.27440273395911E+00
 N305     -4.45428097916121E-16 -7.27439288170670E+00
 
   
   !----------------------------------------------------------------------------------------------------------------!
   ! <EXCEPTION> <MATRICE0_12>                                                                                      !
   !                                                                                                                !
   !  Une des charges renseignées pour l'assemblage des vecteurs est déjà présente dans le mot-clé                  !
   !  CHARGE définissant les conditions de Dirichlet. Il est interdit de renseigner plus d'une fois la même charge. !
   !----------------------------------------------------------------------------------------------------------------!
   

 --------------------------------------------------------------------------------
 ASTER 11.03.00 CONCEPT Pr_2 CALCULE LE 24/06/2016 A 15:52:06 DE TYPE ACOU_HARMO 

                    ENTITES TOPOLOGIQUES SELECTIONNEES 
 GROUP_MA : ENTREE SORTIE                                                        


 ======>

 ------>
 CHAMP AUX NOEUDS DE NOM SYMBOLIQUE  INTE_NOEU                                   
 NUMERO D'ORDRE: 1 FREQ:   4.40000000000000E+01                                  
 NOEUD        INTX_R       INTX_I       INTY_R       INTY_I       INTZ_R       INTZ_I  
 N1       -1.05492812703811E-31 -1.91900814612794E-03  1.63078118040989E-30 -1.31137892577210E-02  2.94522836745418E-31 -2.62591085663852E-03
 N2       -2.56825165496468E-30  2.23636714056785E-03  3.20282149751597E-30 -1.48468200166999E-02  1.21184326925706E-30 -2.77077176232314E-03
 N3        1.80710006681854E-30  1.25396574666470E-03 -1.47911419728940E-30  1.62656658796840E+01  4.09759651261613E-31 -1.59376492935154E-03
 N4        1.46358638711278E-31 -1.19435548784510E-03 -1.97215226305253E-31  1.62663189451724E+01  1.57589217699486E-31 -1.23847673243444E-03
 N18      -1.00046493469671E-30  8.55586961914305E-04 -9.36772324949952E-31  1.62668941934380E+01 -1.04204809437683E-30  6.93141055473028E-04
 N19      -9.44861230716378E-31 -9.75955079062611E-04 -5.91645678915759E-31  1.62651521424236E+01  1.76306849346499E-31  1.01649802891253E-03
 N28      -1.06975778760989E-30 -2.10580146541722E-03 -2.97296175865336E-30 -1.36156060632348E-02  1.77274629143554E-30  2.71601242546206E-03
 N29       1.90263371522400E-30  1.06210101564121E-03 -1.45528081422761E-31 -1.47672640056685E-02  7.05433532075356E-31  3.95401624002999E-03
 N41       1.15423990832665E-30 -2.68572564806407E-03 -9.26901933984967E-31 -1.30296667778815E-02  1.27860081595438E-30 -3.29682537213567E-03
 N42      -1.18948242013191E-30  1.13979448313755E-04  1.19190989433265E-30 -1.73612313596431E-02  6.25080625221131E-31 -3.26066530467676E-03
 N43      -6.61298139060738E-31  3.51723700074114E-03  2.34412155768662E-30 -1.52482234563035E-02  3.53071107054790E-31 -1.39745871910651E-03
 N44      -5.38447882733138E-31  3.47685536031600E-03  4.15976793863338E-31 -1.39487550250890E-02 -2.14229613657699E-32  4.77725629643865E-04
 N45      -1.89042211567037E-30 -1.14621364368885E-03 -9.01575955216275E-31 -1.40809993465588E-02  1.44926228315139E-31  3.34204965164279E-03
 N46       1.16342268211618E-30 -7.37132069012680E-04 -1.24362111333945E-30 -1.36986264365977E-02 -2.60469987916221E-30  4.60243970844767E-03
 N47       8.46862348992602E-31 -2.58135457980429E-03 -1.06235671396646E-30 -1.71838617429378E-02  3.96883433919138E-31 -8.24492666355700E-04
 N48      -2.15896746765809E-31 -2.71469034383273E-03 -1.76667961211072E-30 -1.68492273243223E-02  4.59719477725233E-31  4.64625735713462E-04
 N64       1.34432919383767E-31 -2.20641432526139E-06 -9.53206927142056E-31  1.62664810094113E+01 -2.20091662925928E-31  1.37056030619288E-04
 N65       1.44743415433700E-30  3.92670686777118E-04 -1.82424084332359E-30  1.62658084686847E+01  2.54660600794909E-31 -6.10767567950245E-04
 N110      8.58330803256680E-31  1.01664500249388E-03 -2.16936748935778E-30  1.62661254053677E+01 -9.93800916162580E-31 -8.66220497835643E-04
 N111     -7.57465237861962E-31  1.50816099959827E-03 -9.86076131526265E-31  1.62658854385912E+01 -5.11891114359361E-31  1.88394825615683E-05
 N121      1.06948319212954E-30 -7.11784024559121E-04  1.97215226305253E-31  1.62651844030812E+01 -4.09461733973341E-31  1.24248376686977E-03
 N122      1.40228313420327E-30 -2.29901657060951E-04 -5.91645678915759E-31  1.62648423784186E+01 -2.77321874929610E-31  1.67799287893900E-03
 N123      7.87709216310071E-31 -2.41031337429015E-04 -5.91645678915759E-31  1.62667602617220E+01 -2.48879371801133E-31 -2.66046032158710E-04
 N124      4.46132643820689E-31 -1.18041808850737E-03 -2.95822839457879E-31  1.62657897492587E+01  7.02990760774800E-32  8.12903350618366E-04
 N248      5.75045968354464E-31 -2.35877748223745E-03 -1.63108932920099E-30 -1.92260282925650E-02 -1.12071069050899E-30 -1.75738964818468E-04
 N249     -5.88167893881567E-31  9.46404581600873E-05  6.67534726147479E-31 -2.05285326476915E-02  2.36187529843358E-31 -4.05227984095217E-04
 N250      7.07738736951314E-31 -6.29576777751747E-04 -9.61830049190675E-31 -1.76149756249092E-02 -1.25331567721799E-30  1.23402318188887E-03
 N251     -4.81262935098591E-31 -1.21974116575882E-03 -5.92239507315278E-31 -1.91163723178014E-02 -1.41589285106451E-30  3.83072663098278E-04
 N302      1.25848500430673E-30 -1.80216715981562E-04 -4.19082355898663E-31  1.62656697600345E+01 -1.13796504798019E-31 -2.12071037938204E-04
 N303      1.01760157346165E-30  3.01829150279220E-04 -1.36407198194467E-30  1.62663895178482E+01 -2.04257785366867E-31 -6.01842117418601E-04
 N304      6.54369093570268E-31  3.59481466038582E-06 -8.87468518373638E-31  1.62673434788381E+01 -1.54077005148438E-31  1.15206963300461E-04
 N305      1.57568443019896E-30 -2.26115687600112E-04 -4.50777660126292E-31  1.62672220936503E+01  1.53936829126380E-31  2.67111314287237E-04
 

 ------>
 CHAMP AUX NOEUDS DE NOM SYMBOLIQUE  PRAC_NOEU                                   
 NUMERO D'ORDRE: 1 FREQ:   4.40000000000000E+01                                  
 NOEUD        PRES_R       PRES_I  
 N1       -2.96413860315175E-15 -4.84080570041174E+01
 N2       -2.96418018650324E-15 -4.84087361117837E+01
 N3        1.99115322403610E-15  3.25179998906203E+01
 N4        1.99117509461014E-15  3.25183570641996E+01
 N18       1.99120105345352E-15  3.25187810042842E+01
 N19       1.99115952739035E-15  3.25181028322072E+01
 N28      -2.96414917640595E-15 -4.84082296784624E+01
 N29      -2.96419771309815E-15 -4.84090223428001E+01
 N41      -2.96416525244467E-15 -4.84084922200986E+01
 N42      -2.96421661940269E-15 -4.84093311061850E+01
 N43      -2.96422093358539E-15 -4.84094015621353E+01
 N44      -2.96419299203056E-15 -4.84089452419155E+01
 N45      -2.96417841959598E-15 -4.84087072559984E+01
 N46      -2.96416596037204E-15 -4.84085037814301E+01
 N47      -2.96417722044528E-15 -4.84086876723813E+01
 N48      -2.96419108450882E-15 -4.84089140897212E+01
 N64       1.99119978861954E-15  3.25187603479777E+01
 N65       1.99118700811631E-15  3.25185516265205E+01
 N110      1.99119123897601E-15  3.25186207217029E+01
 N111      1.99118239084434E-15  3.25184762207467E+01
 N121      1.99118086645091E-15  3.25184513255128E+01
 N122      1.99117524546469E-15  3.25183595278415E+01
 N123      1.99120172472461E-15  3.25187919669731E+01
 N124      1.99118248646976E-15  3.25184777824284E+01
 N248     -2.96424044873052E-15 -4.84097202686413E+01
 N249     -2.96427232170163E-15 -4.84102407937614E+01
 N250     -2.96423886397073E-15 -4.84096943875499E+01
 N251     -2.96423458568043E-15 -4.84096245177671E+01
 N302      1.99117751069185E-15  3.25183965218084E+01
 N303      1.99120820983822E-15  3.25188978769157E+01
 N304      1.99121643657969E-15  3.25190322297997E+01
 N305      1.99121287741153E-15  3.25189741041725E+01
 
   
   !----------------------------------------------------------------------------------------------------------------!
   ! <EXCEPTION> <MATRICE0_12>                                                                                      !
   !                                                                                                                !
   !  Une des charges renseignées pour l'assemblage des vecteurs est déjà présente dans le mot-clé                  !
   !  CHARGE définissant les conditions de Dirichlet. Il est interdit de renseigner plus d'une fois la même charge. !
   !----------------------------------------------------------------------------------------------------------------!
   

 --------------------------------------------------------------------------------
 ASTER 11.03.00 CONCEPT Pr_3 CALCULE LE 24/06/2016 A 15:52:06 DE TYPE ACOU_HARMO 

                    ENTITES TOPOLOGIQUES SELECTIONNEES 
 GROUP_MA : ENTREE SORTIE                                                        


 ======>

 ------>
 CHAMP AUX NOEUDS DE NOM SYMBOLIQUE  INTE_NOEU                                   
 NUMERO D'ORDRE: 1 FREQ:   5.60000000000000E+01                                  
 NOEUD        INTX_R       INTX_I       INTY_R       INTY_I       INTZ_R       INTZ_I  
 N1        2.17268971851185E-32 -1.55234639194316E-03 -1.33794353236581E-30 -1.06088150917055E-02  1.13415607012534E-30 -2.12436491660896E-03
 N2       -3.95923048317406E-31  1.80927698636047E-03 -1.41247702121360E-30 -1.20110852853520E-02  1.80905007088724E-30 -2.24150845256014E-03
 N3       -4.09811410628868E-30  6.66071876600249E-03  1.18329135783152E-30  3.25884898556809E+01 -6.05233114673411E-30 -8.41352749508864E-03
 N4       -3.08018790830712E-30 -6.31633191502720E-03 -4.73316543132607E-30  3.25914780213831E+01 -2.15131189612915E-30 -6.43166726018540E-03
 N18       2.40879067410050E-30  4.49727708807001E-03 -1.47911419728940E-30  3.25941982137387E+01 -2.56652734581135E-30  3.73275740384180E-03
 N19       4.05177141700187E-30 -5.19859016721760E-03  2.36658271566304E-30  3.25857344273122E+01 -2.57891649203173E-30  5.40399410779012E-03
 N28       4.92135286101701E-31 -1.70349201008397E-03  7.42831179550157E-31 -1.10148088109161E-02 -4.72238022363750E-31  2.19722502265336E-03
 N29      -7.89307781153420E-31  8.59386139821987E-04  1.71135727445819E-30 -1.19467508844718E-02  3.11344631103425E-31  3.19860165297256E-03
 N41       2.25213432871782E-31 -2.17257269360402E-03 -5.94847537448303E-31 -1.05408646339082E-02  9.32035740992974E-31 -2.66707783598819E-03
 N42      -9.91657316010937E-31  9.23259031281783E-05 -1.10543563982966E-30 -1.40452540634343E-02  1.19695743572857E-30 -2.63782470434496E-03
 N43      -6.29080942209786E-31  2.84547823453447E-03 -8.91416674759632E-31 -1.23359337561261E-02  1.43847557083006E-30 -1.13050392566023E-03
 N44      -1.81845101642828E-30  2.81281678069638E-03 -3.56465558581773E-31 -1.12846456830848E-02  1.88339472832251E-30  3.86505867294165E-04
 N45       3.09939304097130E-31 -9.27164533369554E-04  1.32395646614470E-30 -1.13914158762542E-02 -9.47136235463185E-32  2.70367000877760E-03
 N46       2.97605829289207E-31 -5.96214922826859E-04  1.51043463300999E-30 -1.10820559303762E-02  9.06757910472892E-31  3.72325010067487E-03
 N47       3.76460838397250E-31 -2.08813627885205E-03 -7.13488261183171E-31 -1.39014910462650E-02  6.75154517178482E-31 -6.67037277053564E-04
 N48      -4.60748646539265E-31 -2.19606265156565E-03  1.04279476838847E-30 -1.36308132816926E-02  1.19977912371480E-31  3.75921032096973E-04
 N64       1.61288608134329E-31  3.71027895244275E-06 -1.11755294906310E-30  3.25919593831034E+01 -3.53691818226450E-30  6.97604654110152E-04
 N65      -1.96270316926288E-31  2.10916540372716E-03 -6.90253292068385E-31  3.25887035215088E+01 -3.64505112393374E-30 -3.24807683788961E-03
 N110     -1.41491653247649E-30  5.42515439493122E-03 -2.36658271566304E-30  3.25903388670767E+01 -5.70747734077537E-30 -4.52260500187510E-03
 N111     -2.96135803073842E-31  7.97579352871364E-03 -2.85962078142617E-30  3.25891721772805E+01  2.16279675805533E-31  1.53020244704626E-04
 N121     -1.78127454997053E-30 -3.82720545865669E-03  6.90253292068385E-31  3.25855322568723E+01 -6.68466209572505E-31  6.63123498053479E-03
 N122     -3.23181276171008E-30 -1.24074269407901E-03 -9.86076131526265E-31  3.25837921744613E+01 -2.91325793037735E-30  8.91863675721915E-03
 N123     -2.23237635098478E-31 -1.40030943906848E-03 -2.08484667808410E-30  3.25934312218616E+01 -2.24866765481793E-30 -1.26294581556177E-03
 N124      2.87222358549975E-30 -6.31213696121055E-03  1.77493703674728E-30  3.25887335654188E+01 -1.59260413316072E-30  4.36888306483631E-03
 N248     -1.44700232473228E-31 -1.90802636652470E-03 -1.93527070461751E-31 -1.55539527221806E-02  5.58227597036006E-31 -1.42143012245022E-04
 N249     -7.77680326337129E-31  7.66434764700710E-05 -5.80304914512463E-31 -1.66078370245067E-02  9.95264576623922E-31 -3.27767704164215E-04
 N250     -3.56675347379286E-31 -5.09212625281169E-04  9.78338020142566E-31 -1.42507081868753E-02  9.19814038905037E-31  9.98251568761847E-04
 N251     -7.03468481678974E-32 -9.86561271372497E-04  8.22725173409821E-31 -1.54651627296906E-02  3.17671071169890E-31  3.09890226091170E-04
 N302      2.19636661976566E-30 -9.30814905676971E-04 -3.94430452610506E-31  3.25880302203109E+01 -3.73160061007518E-30 -1.10111304954050E-03
 N303     -5.46000763075589E-31  1.65699728953950E-03 -2.99109759896300E-30  3.25914175245634E+01 -4.46576410178708E-30 -3.15676692190285E-03
 N304     -8.13058950140316E-31  2.65913416549622E-06 -1.75028513345912E-30  3.25963906499440E+01 -1.77179216618086E-30  7.08567305409030E-04
 N305     -8.03131702192860E-31 -1.26379148293511E-03 -2.25388830063146E-31  3.25958371127810E+01 -5.64423003067907E-31  1.56079632686087E-03
 

 ------>
 CHAMP AUX NOEUDS DE NOM SYMBOLIQUE  PRAC_NOEU                                   
 NUMERO D'ORDRE: 1 FREQ:   5.60000000000000E+01                                  
 NOEUD        PRES_R       PRES_I  
 N1       -2.36321317584307E-15 -3.85942000173182E+01
 N2       -2.36326687019319E-15 -3.85950769126019E+01
 N3        3.98667893357907E-15  6.51074078886215E+01
 N4        3.98675289519129E-15  6.51086157734135E+01
 N18       3.98683769687617E-15  6.51100006900269E+01
 N19       3.98669670712302E-15  6.51076981526219E+01
 N28      -2.36322683016736E-15 -3.85944230093564E+01
 N29      -2.36328950469239E-15 -3.85954465620260E+01
 N41      -2.36324758931318E-15 -3.85947620319356E+01
 N42      -2.36331392271185E-15 -3.85958453385463E+01
 N43      -2.36331949170565E-15 -3.85959362871171E+01
 N44      -2.36328340627741E-15 -3.85953469673512E+01
 N45      -2.36326459411809E-15 -3.85950397414747E+01
 N46      -2.36324850081503E-15 -3.85947769178904E+01
 N47      -2.36326304843432E-15 -3.85950144985431E+01
 N48      -2.36328095178685E-15 -3.85953068824784E+01
 N64       3.98683590863436E-15  6.51099714858218E+01
 N65       3.98679265013531E-15  6.51092650209198E+01
 N110      3.98680632726504E-15  6.51094883853992E+01
 N111      3.98677549290573E-15  6.51089848220970E+01
 N121      3.98676896068428E-15  6.51088781428249E+01
 N122      3.98675068861504E-15  6.51085797372888E+01
 N123      3.98684080437219E-15  6.51100514392882E+01
 N124      3.98677429448850E-15  6.51089652504583E+01
 N248     -2.36334469750478E-15 -3.85963479290556E+01
 N249     -2.36338585623357E-15 -3.85970201021071E+01
 N250     -2.36334264845368E-15 -3.85963144655117E+01
 N251     -2.36333712783133E-15 -3.85962243069067E+01
 N302      3.98676161443803E-15  6.51087581695191E+01
 N303      3.98686387918570E-15  6.51104282795906E+01
 N304      3.98688968933487E-15  6.51108497913145E+01
 N305      3.98687771758085E-15  6.51106542777343E+01
 
   
   !----------------------------------------------------------------------------------------------------------------!
   ! <EXCEPTION> <MATRICE0_12>                                                                                      !
   !                                                                                                                !
   !  Une des charges renseignées pour l'assemblage des vecteurs est déjà présente dans le mot-clé                  !
   !  CHARGE définissant les conditions de Dirichlet. Il est interdit de renseigner plus d'une fois la même charge. !
   !----------------------------------------------------------------------------------------------------------------!
   

 --------------------------------------------------------------------------------
 ASTER 11.03.00 CONCEPT Pr_4 CALCULE LE 24/06/2016 A 15:52:06 DE TYPE ACOU_HARMO 

                    ENTITES TOPOLOGIQUES SELECTIONNEES 
 GROUP_MA : ENTREE SORTIE                                                        


 ======>

 ------>
 CHAMP AUX NOEUDS DE NOM SYMBOLIQUE  INTE_NOEU                                   
 NUMERO D'ORDRE: 1 FREQ:   6.80000000000000E+01                                  
 NOEUD        INTX_R       INTX_I       INTY_R       INTY_I       INTZ_R       INTZ_I  
 N1       -2.99879329403245E-31 -1.32550156512621E-03 -1.86718908108343E-31 -9.05924064971114E-03 -4.21537916577756E-31 -1.81412415381944E-03
 N2       -6.37542996902937E-31  1.54510798113361E-03  3.46763686486922E-31 -1.02569850396915E-02 -1.41300665194831E-30 -1.91410813261706E-03
 N3        1.87392983588878E-31  1.72828709926335E-02  1.97215226305253E-30  4.74094513497903E+01  1.87778169577755E-31 -2.17945900600840E-02
 N4        5.07713651939363E-30 -1.63697392491951E-02  0.00000000000000E+00  4.74168524659318E+01  1.13321717927745E-30 -1.65855587761879E-02
 N18      -8.34702852722289E-30  1.16361164783351E-02  5.71924156285234E-30  4.74236704625344E+01  1.54917290828202E-30  9.72110850379636E-03
 N19      -4.82792118458992E-30 -1.34991667169818E-02 -3.54987407349455E-30  4.74022938135890E+01  6.60950267964534E-30  1.40247309942813E-02
 N28       8.48059176886614E-31 -1.45460532476227E-03  3.19319184779404E-31 -9.40596807192823E-03  3.29358094614522E-31  1.87630979285468E-03
 N29      -2.04559338850998E-31  7.34035724436277E-04 -4.29313858728220E-31 -1.02020740851994E-02  2.86683323860462E-31  2.73126621365398E-03
 N41       2.88486250075979E-31 -1.85509852060098E-03 -3.74448929437488E-31 -9.00132450051441E-03  2.49726909945186E-31 -2.27751856887004E-03
 N42      -3.56421422687214E-31  7.89659496450661E-05  2.16073290344045E-31 -1.19940927693545E-02 -5.03167253564394E-31 -2.25253796649805E-03
 N43      -7.69099058432276E-31  2.42995777012671E-03 -2.84050592672812E-31 -1.05345121251184E-02  6.92958621787142E-32 -9.65361658774132E-04
 N44      -3.55231759711149E-31  2.40207394343301E-03 -9.95585410626677E-31 -9.63673583194868E-03  2.20954945977171E-31  3.30087615127120E-04
 N45       1.90343568448990E-32 -7.91631170760073E-04  7.12786672417716E-31 -9.72768514528316E-03  4.81043133328246E-31  2.30877289021454E-03
 N46      -2.31888736151684E-31 -5.09010935088223E-04  5.99879029428014E-31 -9.46348290586775E-03  9.79720562709787E-31  3.17937278183354E-03
 N47       1.49253552158935E-31 -1.78299303930031E-03 -5.39810650126822E-32 -1.18710381436973E-02  4.44644347064558E-31 -5.69646640818876E-04
 N48      -4.32398355904777E-31 -1.87521888804802E-03  6.45932829223174E-31 -1.16399343034529E-02  5.29701452446635E-31  3.21062337170058E-04
 N64       2.50967931053101E-30  2.04333789379536E-05  2.56379794196829E-30  4.74178203836859E+01 -2.37265741969596E-30  1.78831558430313E-03
 N65      -2.94185799005150E-30  5.48932638237609E-03  7.59278621275224E-30  4.74096034486897E+01 -1.31560274501092E-30 -8.43104587458404E-03
 N110      1.32093115119039E-30  1.40946148823757E-02 -1.44624499290519E-30  4.74138128366356E+01  1.60269470205424E-30 -1.16804909416687E-02
 N111     -6.30164277803504E-30  2.06704046301940E-02  1.67632942359465E-30  4.74108711917356E+01  1.93218921670649E-31  4.33602101182196E-04
 N121     -2.24444264600243E-30 -9.96326770737125E-03 -7.29696337329436E-30  4.74014921347499E+01  8.35661002869622E-30  1.72281241325315E-02
 N122      2.67408752393984E-30 -3.23328011563963E-03  2.85962078142617E-30  4.73970316956035E+01  7.86212751547479E-31  2.31450192860764E-02
 N123      4.14749013523791E-31 -3.71797042671219E-03  3.26813803591562E-30  4.74216373681257E+01 -1.91519288494728E-30 -3.17185485410140E-03
 N124     -2.76628540149630E-30 -1.64080054181103E-02 -9.86076131526265E-32  4.74097884783676E+01  4.09507474809520E-30  1.13714227767570E-02
 N248      3.07817771892766E-32 -1.62913881745066E-03 -6.39119852044904E-32 -1.32825424072811E-02  2.43677750188171E-31 -1.21352747219091E-04
 N249     -2.92724684845418E-31  6.55344272384689E-05 -1.58400330502987E-31 -1.41826841566771E-02  2.25746998799885E-31 -2.79834855044447E-04
 N250     -2.02054931343795E-31 -4.34725039768484E-04 -1.45050038097279E-31 -1.21697275268739E-02  5.07717800426855E-31  8.52388643043024E-04
 N251     -3.67661342937196E-31 -8.42261415049486E-04  6.62102616047925E-31 -1.32066364893497E-02  6.23429917687417E-31  2.64617160344654E-04
 N302      2.16481747986417E-30 -2.39663011413869E-03  2.36658271566304E-30  4.74079024058836E+01 -4.22238774521581E-30 -2.83972942058970E-03
 N303     -1.37261791991469E-30  4.33741614668655E-03  2.13649828497357E-30  4.74163718016189E+01 -9.09855447800114E-31 -8.16346740488238E-03
 N304      3.51846582834595E-31 -4.75569300068478E-06  1.87354464989990E-30  4.74292130808824E+01 -1.30430220059895E-31  1.90591826357540E-03
 N305      1.18709850863230E-30 -3.32340012695278E-03  1.07059694279994E-30  4.74278429381137E+01 -6.98629367746162E-31  4.14920523504461E-03
 

 ------>
 CHAMP AUX NOEUDS DE NOM SYMBOLIQUE  PRAC_NOEU                                   
 NUMERO D'ORDRE: 1 FREQ:   6.80000000000000E+01                                  
 NOEUD        PRES_R       PRES_I  
 N1       -1.98179303157841E-15 -3.23651363472016E+01
 N2       -1.98185941259757E-15 -3.23662204315141E+01
 N3        5.79498336280251E-15  9.46392603457128E+01
 N4        5.79514374949619E-15  9.46418796591964E+01
 N18       5.79532590588359E-15  9.46448544987587E+01
 N19       5.79501984343175E-15  9.46398561196008E+01
 N28      -1.98180991461366E-15 -3.23654120680914E+01
 N29      -1.98188740021015E-15 -3.23666775039141E+01
 N41      -1.98183558020670E-15 -3.23658312190344E+01
 N42      -1.98191759577855E-15 -3.23671706349690E+01
 N43      -1.98192447801539E-15 -3.23672830304262E+01
 N44      -1.98187985727949E-15 -3.23665543185080E+01
 N45      -1.98185660707760E-15 -3.23661746138959E+01
 N46      -1.98183670307434E-15 -3.23658495568547E+01
 N47      -1.98185470035131E-15 -3.23661434746925E+01
 N48      -1.98187683602479E-15 -3.23665049776744E+01
 N64       5.79532347149332E-15  9.46448147421486E+01
 N65       5.79522964442668E-15  9.46432824298655E+01
 N110      5.79525893626960E-15  9.46437608019633E+01
 N111      5.79519154605209E-15  9.46426602361911E+01
 N121      5.79517657619605E-15  9.46424157598889E+01
 N122      5.79513738838799E-15  9.46417757744158E+01
 N123      5.79533312193132E-15  9.46449723457614E+01
 N124      5.79518805266617E-15  9.46426031848694E+01
 N248     -1.98195564997375E-15 -3.23677921071393E+01
 N249     -1.98200653791242E-15 -3.23686231702458E+01
 N250     -1.98195311258524E-15 -3.23677506684401E+01
 N251     -1.98194629325466E-15 -3.23676393003202E+01
 N302      5.79516298348775E-15  9.46421937741162E+01
 N303      5.79538383117125E-15  9.46458004904962E+01
 N304      5.79543862765569E-15  9.46466953849992E+01
 N305      5.79541270352252E-15  9.46462720117754E+01
 
   
   !----------------------------------------------------------------------------------------------------------------!
   ! <EXCEPTION> <MATRICE0_12>                                                                                      !
   !                                                                                                                !
   !  Une des charges renseignées pour l'assemblage des vecteurs est déjà présente dans le mot-clé                  !
   !  CHARGE définissant les conditions de Dirichlet. Il est interdit de renseigner plus d'une fois la même charge. !
   !----------------------------------------------------------------------------------------------------------------!
   

 --------------------------------------------------------------------------------
 ASTER 11.03.00 CONCEPT Pr_5 CALCULE LE 24/06/2016 A 15:52:06 DE TYPE ACOU_HARMO 

                    ENTITES TOPOLOGIQUES SELECTIONNEES 
 GROUP_MA : ENTREE SORTIE                                                        


 ======>

 ------>
 CHAMP AUX NOEUDS DE NOM SYMBOLIQUE  INTE_NOEU                                   
 NUMERO D'ORDRE: 1 FREQ:   8.00000000000000E+01                                  
 NOEUD        INTX_R       INTX_I       INTY_R       INTY_I       INTZ_R       INTZ_I  
 N1        3.81574870231721E-33 -1.17650692299190E-03  3.23171044668178E-31 -8.04166160072485E-03  6.71547697483524E-32 -1.61041006060972E-03
 N2        1.58239219055716E-31  1.37166252891504E-03  3.65637799941917E-31 -9.10518343980338E-03 -6.71186585618952E-32 -1.69911141010028E-03
 N3        3.22891784826242E-30  3.44469952229811E-02  0.00000000000000E+00  6.16065993122013E+01 -3.36479220583894E-30 -4.34064738800084E-02
 N4       -9.65738311313536E-30 -3.26089948124827E-02  6.31088724176809E-30  6.16210203971367E+01  1.21337438356285E-29 -3.29628431091499E-02
 N18       7.58460101048859E-30  2.31620075312369E-02  6.70531769437860E-30  6.16343844336604E+01  7.62871684327721E-30  1.94075737827803E-02
 N19      -6.33149469217304E-30 -2.69147139682229E-02 -1.57772181044202E-30  6.15923278965871E+01 -3.19126591784965E-31  2.79546455290215E-02
 N28       4.07346220300053E-31 -1.29114638231111E-03  2.14644892301957E-31 -8.34948008091010E-03 -2.68113522383008E-31  1.66557665873768E-03
 N29       5.02941558649036E-31  6.51771258831549E-04  3.54611851010300E-31 -9.05646843000518E-03 -1.44946917015714E-31  2.42433661151953E-03
 N41      -2.89966808720727E-31 -1.64657863551272E-03  1.38209547634089E-31 -7.99036649020347E-03  3.80160515428812E-32 -2.02170364465786E-03
 N42      -2.54122443807845E-32  7.02291938012545E-05  7.94446102059735E-32 -1.06472335159944E-02 -2.59214121098319E-31 -1.99952863764462E-03
 N43       1.56274168659334E-31  2.15712270430756E-03 -7.75668285101959E-32 -9.35167243123840E-03  8.32332755184477E-32 -8.56911039040513E-04
 N44       4.08814741882648E-31  2.13237827880180E-03  1.60129037813646E-31 -8.55469180793222E-03 -9.57728850157315E-32  2.93049389387369E-04
 N45      -7.66429839899977E-32 -7.02597561840530E-04  2.61204248707519E-32 -8.63518640416316E-03  4.41609717716917E-32  2.04945475984789E-03
 N46       7.65489444419319E-32 -4.51711287207145E-04 -5.58254868504945E-31 -8.40063004845289E-03 -4.14785124710249E-31  2.82220579784518E-03
 N47      -3.45789544242730E-31 -1.58257001926660E-03  1.00519786454554E-31 -1.05376934979445E-02 -3.02624639364151E-32 -5.05703470592074E-04
 N48      -1.20731733388775E-31 -1.66450410131229E-03  1.76150367538518E-31 -1.03325880575119E-02 -2.99767986578335E-31  2.85052158774668E-04
 N64      -2.33674685094124E-30  5.05862159910732E-05  8.02008586974695E-30  6.16226844033672E+01 -3.66311875422452E-31  3.54351514087374E-03
 N65      -6.87036989061259E-30  1.09564124495197E-02  1.06496222204837E-29  6.16065234532085E+01 -2.37553828990444E-30 -1.68077898194958E-02
 N110      1.83656679496767E-30  2.81089291007104E-02  2.89248998581038E-30  6.16148816430812E+01 -1.91758424796156E-30 -2.32318679282186E-02
 N111      2.64940552799630E-30  4.11759375851699E-02  7.69139382590487E-30  6.16091007660183E+01  1.20554186722027E-31  8.96580183167179E-04
 N121     -1.06547500089606E-29 -1.98881342023662E-02 -6.11367201546284E-30  6.15904690344567E+01  4.45717967029538E-30  3.43571467416039E-02
 N122     -2.64823793296752E-30 -6.45730732039570E-03  3.94430452610506E-30  6.15816301398656E+01  3.15101398201196E-30  4.61331995948206E-02
 N123     -9.61348566704579E-30 -7.48840566149700E-03  5.52202633654708E-30  6.16302919395002E+01  2.89933276904731E-30 -6.22602103119617E-03
 N124     -3.59354453498353E-30 -3.27305667362307E-02  2.76101316827354E-30  6.16069952910821E+01  8.15510960826470E-32  2.26961331702301E-02
 N248     -2.95408764519836E-31 -1.44594232879148E-03 -2.85133928266530E-32 -1.17910838999449E-02 -2.61893718462073E-31 -1.07691923026742E-04
 N249      8.27149874000003E-32  5.82642591010670E-05  2.58519057919671E-33 -1.25903215110790E-02 -7.90735446169287E-32 -2.48341432293577E-04
 N250      3.59936101537361E-31 -3.85778483253248E-04 -1.00942803210196E-31 -1.08033416778712E-02 -1.99530103820440E-31  7.56587447655273E-04
 N251     -1.60948999979748E-31 -7.47444651309701E-04 -2.47987554464161E-31 -1.17236140784658E-02 -2.39970808377618E-31  2.34884529973687E-04
 N302     -5.64009486993463E-30 -4.75967994740983E-03  1.02551917678732E-29  6.16031763214727E+01 -3.65599281343029E-30 -5.64479635793315E-03
 N303     -3.47857328815108E-30  8.68015965923619E-03  7.09974814698911E-30  6.16197563298154E+01 -3.80588934532587E-30 -1.62466767881588E-02
 N304     -6.33534326067763E-31 -2.03867388188649E-05  1.00086727349916E-29  6.16452933116551E+01  1.95082559818398E-30  3.85964327239696E-03
 N305     -1.00365522905169E-29 -6.66475508630199E-03  2.76101316827354E-30  6.16426240920850E+01 -5.17127666290740E-31  8.36036115246209E-03
 

 ------>
 CHAMP AUX NOEUDS DE NOM SYMBOLIQUE  PRAC_NOEU                                   
 NUMERO D'ORDRE: 1 FREQ:   8.00000000000000E+01                                  
 NOEUD        PRES_R       PRES_I  
 N1       -1.72146737281974E-15 -2.81136957042355E+01
 N2       -1.72154716289217E-15 -2.81149987750065E+01
 N3        7.52275822830942E-15  1.22855965222741E+02
 N4        7.52304799520136E-15  1.22860697475210E+02
 N18       7.52337566871859E-15  1.22866048789849E+02
 N19       7.52282244682583E-15  1.22857013990703E+02
 N28      -1.72148766987251E-15 -2.81140271802626E+01
 N29      -1.72158081140057E-15 -2.81155482968510E+01
 N41      -1.72151852220060E-15 -2.81145310370172E+01
 N42      -1.72161711823561E-15 -2.81161412324642E+01
 N43      -1.72162538699734E-15 -2.81162762715911E+01
 N44      -1.72157173961071E-15 -2.81154001432794E+01
 N45      -1.72154380261437E-15 -2.81149438975055E+01
 N46      -1.72151986614362E-15 -2.81145529852723E+01
 N47      -1.72154151670697E-15 -2.81149065658045E+01
 N48      -1.72156812696338E-15 -2.81153411442712E+01
 N64       7.52337244562155E-15  1.22865996152680E+02
 N65       7.52320291606014E-15  1.22863227524836E+02
 N110      7.52325553557694E-15  1.22864086866759E+02
 N111      7.52313336102973E-15  1.22862091604986E+02
 N121      7.52310564978767E-15  1.22861639046059E+02
 N122      7.52303521842841E-15  1.22860488814673E+02
 N123      7.52338908032205E-15  1.22866267817956E+02
 N124      7.52312630048725E-15  1.22861976297576E+02
 N248     -1.72166287100629E-15 -2.81168884319133E+01
 N249     -1.72172404469436E-15 -2.81178874740553E+01
 N250     -1.72165981503702E-15 -2.81168385241477E+01
 N251     -1.72165162634570E-15 -2.81167047926696E+01
 N302      7.52308302426215E-15  1.22861269543186E+02
 N303      7.52348125586177E-15  1.22867773158757E+02
 N304      7.52357928826436E-15  1.22869374149388E+02
 N305      7.52353248048426E-15  1.22868609720328E+02
 
   
   !----------------------------------------------------------------------------------------------------------------!
   ! <EXCEPTION> <MATRICE0_12>                                                                                      !
   !                                                                                                                !
   !  Une des charges renseignées pour l'assemblage des vecteurs est déjà présente dans le mot-clé                  !
   !  CHARGE définissant les conditions de Dirichlet. Il est interdit de renseigner plus d'une fois la même charge. !
   !----------------------------------------------------------------------------------------------------------------!
   

 --------------------------------------------------------------------------------
 ASTER 11.03.00 CONCEPT Pr_6 CALCULE LE 24/06/2016 A 15:52:06 DE TYPE ACOU_HARMO 

                    ENTITES TOPOLOGIQUES SELECTIONNEES 
 GROUP_MA : ENTREE SORTIE                                                        


 ======>

 ------>
 CHAMP AUX NOEUDS DE NOM SYMBOLIQUE  INTE_NOEU                                   
 NUMERO D'ORDRE: 1 FREQ:   9.20000000000000E+01                                  
 NOEUD        INTX_R       INTX_I       INTY_R       INTY_I       INTZ_R       INTZ_I  
 N1       -5.72603046590630E-32 -1.07595380409383E-03  3.05933971665912E-31 -7.35514322114343E-03 -2.83400591316582E-31 -1.47298995979270E-03
 N2       -2.31569001688260E-31  1.25467901913039E-03 -1.54074395550979E-32 -8.32820570887139E-03  5.31652961148096E-31 -1.55406365009531E-03
 N3        8.93631494195677E-32  5.97746704074230E-02  1.06496222204837E-29  7.56468651980433E+01  4.97390667437448E-30 -7.52891147756105E-02
 N4        4.54943171463153E-30 -5.65669082746408E-02 -5.52202633654708E-30  7.56715489049969E+01  1.41378665357578E-29 -5.71042369916853E-02
 N18       1.05926146941298E-31  4.01618911854093E-02 -2.16936748935778E-30  7.56945046814121E+01 -7.83335893693051E-31  3.37089926815774E-02
 N19       2.05173168835461E-29 -4.67130946594735E-02  5.52202633654708E-30  7.56220937482357E+01 -1.34283539442456E-29  4.85086821083419E-02
 N28      -1.58552182671679E-31 -1.18084607594761E-03  4.89186205874358E-32 -7.63672276253847E-03  3.70548921300104E-31  1.52341085027251E-03
 N29      -1.72185660192064E-31  5.96327189350259E-04 -1.88536504493358E-31 -8.28367940889074E-03 -2.65856949387622E-31  2.21722152251789E-03
 N41       7.89902111097196E-32 -1.50585469766241E-03  1.86959649351391E-31 -7.30835004258319E-03 -1.59813064932145E-31 -1.84911810964973E-03
 N42      -2.34110827979446E-31  6.43751973460160E-05 -6.21433395388948E-32 -9.73867754713171E-03  1.89659963627584E-31 -1.82883580578228E-03
 N43      -7.91948411663108E-32  1.97308547526461E-03  8.28149876086511E-32 -8.55379552452468E-03  8.63283051243888E-32 -7.83738897628611E-04
 N44      -1.72882305164135E-31  1.95046129997294E-03  1.25028964577189E-31 -7.82480331848007E-03 -9.53726526991635E-32  2.68073047903957E-04
 N45       2.29659622704333E-32 -6.42495838541673E-04 -8.79187019612773E-32 -7.89817231736348E-03  1.76418192171409E-31  1.87450806817344E-03
 N46      -3.51670293946802E-32 -4.13015711379273E-04 -5.79103060152937E-31 -7.68360751000400E-03 -2.90026994031489E-31  2.58122675280203E-03
 N47       2.12157519387175E-31 -1.44730798746406E-03  1.32820382950420E-31 -9.63816224322969E-03 -3.04242764433497E-31 -4.62576460558968E-04
 N48       2.58255168480176E-31 -1.52231907566193E-03 -7.11871855694132E-32 -9.45060887113539E-03 -8.25862834277552E-32  2.60773719271820E-04
 N64      -7.06349251578602E-30  9.76540781041079E-05  7.75713223467328E-30  7.56741608193339E+01  2.67850311957275E-30  6.12651093710586E-03
 N65      -5.54200785972010E-30  1.90283535871826E-02  1.49883571991992E-29  7.56463404704674E+01 -8.84242585716790E-31 -2.91709046004909E-02
 N110      7.79950269344980E-30  4.87936238650468E-02 -7.36270178206278E-30  7.56608111787986E+01 -2.03647832319506E-30 -4.02659876955045E-02
 N111      9.55761994201610E-30  7.14278460159367E-02 -9.66354608895739E-30  7.56508656827850E+01  4.31017103022787E-30  1.58654994074514E-03
 N121     -7.32869306912814E-30 -3.45417269974833E-02 -1.28189897098414E-29  7.56185977700945E+01  9.15461910115307E-30  5.96370878896764E-02
 N122     -8.40403605357675E-30 -1.12186306060998E-02 -4.73316543132607E-30  7.56033137510365E+01  2.99597662148878E-30  8.00539626377728E-02
 N123     -9.36352747354924E-30 -1.30739587591172E-02  3.60622128101034E-30  7.56873624012267E+01  8.04645964611634E-30 -1.07078757010907E-02
 N124     -7.93117210398108E-30 -5.68239858996317E-02 -6.70531769437860E-30  7.56472657486015E+01  2.24893247018528E-30  3.94139828656605E-02
 N248     -3.99645509788042E-32 -1.32228559527069E-03 -9.76446481804329E-32 -1.07850109551736E-02 -2.37758158120481E-31 -9.84664414621448E-05
 N249     -2.13593964183265E-31  5.33869563126705E-05 -3.41037748613801E-32 -1.15162345454556E-02 -6.11086923183704E-32 -2.27075613480249E-04
 N250     -9.48321133768814E-32 -3.52721095438785E-04 -1.17426700037782E-31 -9.88167300107813E-03 -2.14731838581255E-31  6.91937244815285E-04
 N251      1.91710213854514E-31 -6.83412163853775E-04 -2.05721416892963E-31 -1.07232053972447E-02 -1.98836648356374E-31  2.14822325210367E-04
 N302     -1.21759217014105E-29 -8.24193031582442E-03  1.36078506150625E-29  7.56405774193586E+01 -1.17721264144455E-30 -9.78121718905516E-03
 N303     -1.92279780050632E-30  1.50984169710810E-02  3.54987407349455E-30  7.56690365922028E+01 -2.58308733406754E-30 -2.81696792903877E-02
 N304     -4.48740981149570E-30 -4.67516950127039E-05 -2.41588652223935E-30  7.57132910759615E+01 -6.43380972046861E-31  6.75755137496533E-03
 N305     -1.30616912744404E-29 -1.16067498475613E-02 -6.14184561922073E-30  7.57087225226425E+01  4.71849053298196E-30  1.45977285411118E-02
 

 ------>
 CHAMP AUX NOEUDS DE NOM SYMBOLIQUE  PRAC_NOEU                                   
 NUMERO D'ORDRE: 1 FREQ:   9.20000000000000E+01                                  
 NOEUD        PRES_R       PRES_I  
 N1       -1.53524339849935E-15 -2.50724274063060E+01
 N2       -1.53533748112021E-15 -2.50739638921062E+01
 N3        9.22616316253680E-15  1.50674678919022E+02
 N4        9.22663470697205E-15  1.50682379824060E+02
 N18       9.22716661898565E-15  1.50691066606469E+02
 N19       9.22626610157922E-15  1.50676360041163E+02
 N28      -1.53526733626003E-15 -2.50728183396053E+01
 N29      -1.53537716706696E-15 -2.50746120128015E+01
 N41      -1.53530371816382E-15 -2.50734125011842E+01
 N42      -1.53541999351029E-15 -2.50753114216982E+01
 N43      -1.53542973836126E-15 -2.50754705671919E+01
 N44      -1.53536646318059E-15 -2.50744372050712E+01
 N45      -1.53533353531825E-15 -2.50738994522699E+01
 N46      -1.53530529495832E-15 -2.50734382521925E+01
 N47      -1.53533084814636E-15 -2.50738555674226E+01
 N48      -1.53536222932857E-15 -2.50743680610205E+01
 N64       9.22716244904418E-15  1.50690998506157E+02
 N65       9.22688656002370E-15  1.50686492896529E+02
 N110      9.22697190939735E-15  1.50687886757578E+02
 N111      9.22677271440045E-15  1.50684633656406E+02
 N121      9.22672699375723E-15  1.50683886981638E+02
 N122      9.22661273804524E-15  1.50682021044258E+02
 N123      9.22718876441092E-15  1.50691428268710E+02
 N124      9.22676050633071E-15  1.50684434283497E+02
 N248     -1.53547395770573E-15 -2.50761927238905E+01
 N249     -1.53554609790853E-15 -2.50773708628094E+01
 N250     -1.53547034606647E-15 -2.50761337413452E+01
 N251     -1.53546070173811E-15 -2.50759762375104E+01
 N302      9.22669198823614E-15  1.50683315298094E+02
 N303      9.22733929849147E-15  1.50693886676810E+02
 N304      9.22749792498222E-15  1.50696477243998E+02
 N305      9.22742177801754E-15  1.50695233669692E+02
 
   
   !----------------------------------------------------------------------------------------------------------------!
   ! <EXCEPTION> <MATRICE0_12>                                                                                      !
   !                                                                                                                !
   !  Une des charges renseignées pour l'assemblage des vecteurs est déjà présente dans le mot-clé                  !
   !  CHARGE définissant les conditions de Dirichlet. Il est interdit de renseigner plus d'une fois la même charge. !
   !----------------------------------------------------------------------------------------------------------------!
   

 --------------------------------------------------------------------------------
 ASTER 11.03.00 CONCEPT Pr_7 CALCULE LE 24/06/2016 A 15:52:06 DE TYPE ACOU_HARMO 

                    ENTITES TOPOLOGIQUES SELECTIONNEES 
 GROUP_MA : ENTREE SORTIE                                                        


 ======>

 ------>
 CHAMP AUX NOEUDS DE NOM SYMBOLIQUE  INTE_NOEU                                   
 NUMERO D'ORDRE: 1 FREQ:   1.04000000000000E+02                                  
 NOEUD        INTX_R       INTX_I       INTY_R       INTY_I       INTZ_R       INTZ_I  
 N1        1.64534602561432E-31 -1.00824345967998E-03 -9.12409311153453E-32 -6.89311573313789E-03  2.43774582710814E-31 -1.38052631299853E-03
 N2        2.58207020231566E-31  1.17598740413327E-03  5.24430723856644E-31 -7.80540971918276E-03  4.59454662357880E-32 -1.45644823837255E-03
 N3        6.76116966276583E-30  9.52309911355295E-02  3.94430452610506E-30  8.98305384977298E+01 -4.13843826449929E-30 -1.19913984644591E-01
 N4       -1.51324167590394E-29 -9.01005349102247E-02  0.00000000000000E+00  8.98694884122893E+01  9.83765015593000E-30 -9.08746755459911E-02
 N18      -1.20231954568206E-29  6.39523106661989E-02  1.57772181044202E-30  8.99057985670583E+01 -1.26849690598364E-29  5.37369822824031E-02
 N19       2.44978288926056E-31 -7.44308951225132E-02 -3.15544362088405E-30  8.97910629109836E+01  3.86033398052978E-30  7.72799619125485E-02
 N28       1.61248484593821E-31 -1.10658899995679E-03  2.92837648044079E-31 -7.15704964865902E-03  3.41130341399589E-32  1.42774142053262E-03
 N29       3.20193376418223E-32  5.59078952541152E-04 -8.40548050103504E-32 -7.76371243419154E-03 -1.90195362121238E-31  2.07778347015786E-03
 N41       8.33566554055101E-33 -1.41109582361633E-03 -1.20490992145726E-32 -6.84939312902189E-03  9.86768262600029E-32 -1.73297042022332E-03
 N42      -1.03749444868735E-31  6.04824630005020E-05  1.61537374085479E-32 -9.12735151237571E-03  7.19144247411219E-32 -1.71396176859567E-03
 N43       1.60339686401314E-31  1.84926702827324E-03  1.65654049341607E-31 -8.01698208703595E-03  1.87484766187790E-31 -7.34488124964532E-04
 N44       1.94157812518538E-31  1.82807237820746E-03  1.09404857903347E-31 -7.33372955455962E-03  2.22958364509165E-31  2.51277737940402E-04
 N45       6.09902892935442E-32 -6.02007179391700E-04  3.80214682208498E-31 -7.40221888349879E-03  4.91924637514034E-32  1.75677404313352E-03
 N46      -1.66778010020089E-31 -3.86929400148852E-04 -2.67583891648302E-32 -7.20109755977497E-03 -5.38116863523946E-32  2.41903216236993E-03
 N47       1.31452456815813E-31 -1.35622415373917E-03  1.81794030107695E-32 -9.03280147180559E-03  8.87518386202555E-32 -4.33566834699163E-04
 N48       2.37334754459270E-31 -1.42659987089275E-03  2.82208922163492E-31 -8.85707468098176E-03  1.88921690482235E-32  2.44453131827496E-04
 N64      -6.23645004941753E-30  1.66071663174488E-04 -6.83679451191544E-30  8.98733433073165E+01  6.24155376377015E-30  9.73434979398844E-03
 N65       1.20277213921899E-29  3.03332754417313E-02 -3.35265884718930E-30  8.98292666984018E+01  3.61795569702864E-30 -4.64813045481647E-02
 N110     -7.46952669631146E-30  7.77555360751769E-02 -8.94042359250480E-30  8.98522839846264E+01 -1.77860914317457E-29 -6.41021819436887E-02
 N111     -1.13756978095176E-29  1.13770986249045E-01 -6.31088724176809E-30  8.98365345233680E+01 -6.95555016093419E-30  2.55781412209979E-03
 N121     -1.80758154930464E-30 -5.50638368870355E-02  3.74708929979981E-30  8.97851941079407E+01 -1.66323309997282E-30  9.50298126047956E-02
 N122     -2.32401003424236E-29 -1.78882468167304E-02  5.12759588393658E-30  8.97609048815398E+01 -1.35658653422748E-29  1.27537592846539E-01
 N123     -3.55012169305883E-30 -2.09157819284980E-02  4.50777660126292E-31  8.98943764192021E+01  4.90903034853355E-30 -1.69576598781418E-02
 N124      1.48768458554192E-29 -9.05602402162688E-02  2.76101316827354E-30  8.98308569412907E+01 -2.80415399902782E-30  6.28231463652765E-02
 N248     -7.19853932533956E-32 -1.23899263101715E-03  2.62504251419980E-32 -1.01081003754690E-02  1.23175623759954E-31 -9.22470691682685E-05
 N249     -8.49399920424823E-32  5.01366761851051E-05 -3.63260017202885E-32 -1.07936224893905E-02  2.28299550422091E-31 -2.12742100780373E-04
 N250     -1.52015198132761E-32 -3.30432440652193E-04  8.15768897872593E-32 -9.26159329536647E-03  9.11037945858231E-32  6.48407686714388E-04
 N251      8.68589389476080E-32 -6.40244173125889E-04  2.09055683109184E-31 -1.00500751704936E-02  6.03563060070007E-32  2.01317168618383E-04
 N302     -2.45899124180717E-30 -1.31119403493902E-02 -4.04291213925769E-30  8.98201356794775E+01  6.91531628068972E-30 -1.55699949238970E-02
 N303      1.95330172217758E-30  2.40938796079307E-02 -4.60168861378924E-30  8.98651304722145E+01 -2.01868955151081E-30 -4.48573479376116E-02
 N304     -1.33981078163221E-29 -8.72514077454901E-05 -6.26158343519178E-30  8.99355697833453E+01 -2.98012230600128E-30  1.08282920255478E-02
 N305     -2.68785534367175E-30 -1.85369075507629E-02 -2.14119388559989E-30  8.99283605749944E+01  1.29009792989025E-30  2.33520932417575E-02
 

 ------>
 CHAMP AUX NOEUDS DE NOM SYMBOLIQUE  PRAC_NOEU                                   
 NUMERO D'ORDRE: 1 FREQ:   1.04000000000000E+02                                  
 NOEUD        PRES_R       PRES_I  
 N1       -1.39788694680850E-15 -2.28292263170370E+01
 N2       -1.39799638421218E-15 -2.28310135654707E+01
 N3        1.09407347968814E-14  1.78675758667703E+02
 N4        1.09414510108896E-14  1.78687455330100E+02
 N18       1.09422576059389E-14  1.78700628026911E+02
 N19       1.09408895932937E-14  1.78678286684964E+02
 N28      -1.39791479790608E-15 -2.28296811599779E+01
 N29      -1.39804256048014E-15 -2.28317676811553E+01
 N41      -1.39795712164448E-15 -2.28303723590801E+01
 N42      -1.39809239775996E-15 -2.28325815857007E+01
 N43      -1.39810372629828E-15 -2.28327665947715E+01
 N44      -1.39803010025820E-15 -2.28315641902883E+01
 N45      -1.39799181616361E-15 -2.28309389635762E+01
 N46      -1.39795894530947E-15 -2.28304021417895E+01
 N47      -1.39798870131772E-15 -2.28308880942824E+01
 N48      -1.39802520979125E-15 -2.28314843229020E+01
 N64       1.09422523208908E-14  1.78700541715525E+02
 N65       1.09418332776064E-14  1.78693698219349E+02
 N110      1.09419626337048E-14  1.78695810764753E+02
 N111      1.09416597274034E-14  1.78690863929444E+02
 N121      1.09415896493108E-14  1.78689719467339E+02
 N122      1.09414164921519E-14  1.78686891596332E+02
 N123      1.09422915215943E-14  1.78701181911597E+02
 N124      1.09416404359063E-14  1.78690548875386E+02
 N248     -1.39815519024858E-15 -2.28336070648620E+01
 N249     -1.39823911560023E-15 -2.28349776698675E+01
 N250     -1.39815097820502E-15 -2.28335382769704E+01
 N251     -1.39813977469603E-15 -2.28333553097835E+01
 N302      1.09415383168353E-14  1.78688881144396E+02
 N303      1.09425207170490E-14  1.78704924957426E+02
 N304      1.09427607400678E-14  1.78708844830797E+02
 N305      1.09426451039102E-14  1.78706956349028E+02
 
   
   !----------------------------------------------------------------------------------------------------------------!
   ! <EXCEPTION> <MATRICE0_12>                                                                                      !
   !                                                                                                                !
   !  Une des charges renseignées pour l'assemblage des vecteurs est déjà présente dans le mot-clé                  !
   !  CHARGE définissant les conditions de Dirichlet. Il est interdit de renseigner plus d'une fois la même charge. !
   !----------------------------------------------------------------------------------------------------------------!
   

 --------------------------------------------------------------------------------
 ASTER 11.03.00 CONCEPT Pr_8 CALCULE LE 24/06/2016 A 15:52:07 DE TYPE ACOU_HARMO 

                    ENTITES TOPOLOGIQUES SELECTIONNEES 
 GROUP_MA : ENTREE SORTIE                                                        


 ======>

 ------>
 CHAMP AUX NOEUDS DE NOM SYMBOLIQUE  INTE_NOEU                                   
 NUMERO D'ORDRE: 1 FREQ:   1.16000000000000E+02                                  
 NOEUD        INTX_R       INTX_I       INTY_R       INTY_I       INTZ_R       INTZ_I  
 N1       -2.14211558064470E-31 -9.64483140104386E-04 -2.14548595804738E-31 -6.59483434634421E-03 -1.15206721860814E-31 -1.32085748999008E-03
 N2       -1.98515229017714E-31  1.12523223196305E-03  1.81904083247374E-31 -7.46803368587519E-03 -2.66380185433060E-32 -1.39343076438549E-03
 N3       -7.40558582215780E-30  1.43215748130138E-01 -1.73549399148623E-29  1.04386112293347E+02 -7.84546822145584E-30 -1.80298712371270E-01
 N4       -1.47973049487160E-29 -1.35477257814728E-01  6.31088724176809E-30  1.04444251718995E+02 -2.96577803996079E-29 -1.36549507973577E-01
 N18       6.71494734410054E-30  9.61404042271351E-02 -5.91645678915759E-31  1.04498546995681E+02 -6.73979184038313E-30  8.08495533647326E-02
 N19      -2.17429787001541E-29 -1.11944727025906E-01  4.73316543132607E-30  1.04326728676052E+02  1.61808930207638E-29  1.16213540134042E-01
 N28      -1.97889301785788E-32 -1.05861841167114E-03 -1.53592913064882E-32 -6.84739275601336E-03 -2.85759855498456E-32  1.36598825546373E-03
 N29       1.26728447289834E-31  5.35113071094952E-04 -1.09043746038775E-31 -7.42817522084955E-03 -2.88806736855787E-32  1.98770220046145E-03
 N41      -1.95752723253734E-32 -1.34985642239176E-03 -3.00926553810506E-31 -6.55314454079731E-03  2.27681030613029E-32 -1.65798948175735E-03
 N42      -3.35031563242363E-32  5.80275505361221E-05  3.07346320291796E-32 -8.73284868249947E-03 -9.29341445247857E-32 -1.63980291411049E-03
 N43      -1.91503640313930E-31  1.76937878858644E-03  2.57593130061793E-32 -7.67061557411815E-03 -6.01431810445676E-32 -7.02684929805704E-04
 N44      -9.79907137173149E-32  1.74911024166972E-03 -1.34526206615448E-31 -7.01687168742361E-03  1.18674148077096E-32  2.40451917174895E-04
 N45      -7.07177401454688E-34 -5.75818305715928E-04 -1.15351166606643E-31 -7.08210663746636E-03 -4.92857509830846E-32  1.68077239334655E-03
 N46      -1.57437249789811E-32 -3.70033609872730E-04 -2.60987581588775E-31 -6.88965088735565E-03 -1.09507172931643E-31  2.31430145092493E-03
 N47      -1.35214038738444E-31 -1.29735631015558E-03 -1.33687051425394E-31 -8.64201565467265E-03 -6.99503774332520E-32 -4.14856850996011E-04
 N48      -1.26449337911174E-31 -1.36476893746791E-03 -2.61324619329043E-32 -8.47394138464897E-03 -2.92440424993049E-32  2.33940017551011E-04
 N64       2.45742241137330E-30  2.61458136414207E-04  4.07578134364189E-30  1.04449689252862E+02 -6.41906030697784E-30  1.46067323268224E-02
 N65       8.09930578812608E-30  4.56387470153216E-02 -3.54987407349455E-30  1.04383689303078E+02  1.67555905161690E-32 -6.99129548218134E-02
 N110     -2.64237588369929E-29  1.16957479807724E-01 -4.99611906639974E-30  1.04418260549176E+02  8.88046297356954E-30 -9.63510857513129E-02
 N111      7.99723150107356E-30  1.71068304418545E-01  2.56379794196829E-30  1.04394686866072E+02 -9.55778846088623E-31  3.87682269899194E-03
 N121     -4.81289893102370E-31 -8.28471420765290E-02  4.33873497871556E-30  1.04317553306758E+02  8.64280321843216E-30  1.42931247467062E-01
 N122      1.34048094506754E-29 -2.69196479800375E-02  3.15544362088405E-30  1.04281098029210E+02  8.26878762323216E-30  1.91795760972806E-01
 N123      1.46750359105323E-30 -3.15546885896398E-02  6.64897048686281E-30  1.04481321392873E+02 -7.88041009330401E-30 -2.53889422841777E-02
 N124     -7.68811974499941E-30 -1.36226103108924E-01  6.50810246807335E-30  1.04386213504508E+02  1.34873836970410E-29  9.45091915846235E-02
 N248      1.29022259946254E-32 -1.18513035076195E-03 -8.52368445137181E-32 -9.67131173471289E-03 -6.43324266199377E-32 -8.82187220110536E-05
 N249     -6.18473512669930E-32  4.80781295602894E-05 -5.31889998679713E-32 -1.03274184615839E-02 -3.02537668283214E-32 -2.03461729950180E-04
 N250      1.80494134869003E-32 -3.15992288678216E-04 -1.21694698360968E-31 -8.86152731477865E-03 -4.11946957412739E-34  6.20280723116151E-04
 N251     -6.11075252634662E-32 -6.12283549537939E-04 -1.03639105132338E-31 -9.61568787902515E-03 -5.34141498362045E-32  1.92594324062040E-04
 N302      1.29072213754187E-29 -1.96972480936748E-02  0.00000000000000E+00  1.04370017148511E+02 -4.49112418556520E-30 -2.34032070062032E-02
 N303     -2.82992183828635E-30  3.62802110702834E-02 -4.40447338748398E-30  1.04437279185601E+02 -1.85220293870366E-30 -6.74391523170852E-02
 N304      1.58109700266956E-29 -1.46406229679570E-04  3.45126646034193E-31  1.04543134130447E+02 -9.19240343924951E-32  1.63520421858841E-02
 N305      8.75184524489063E-30 -2.79295631605615E-02  5.91645678915759E-30  1.04532372372843E+02  3.44468390692486E-30  3.52245649219672E-02
 

 ------>
 CHAMP AUX NOEUDS DE NOM SYMBOLIQUE  PRAC_NOEU                                   
 NUMERO D'ORDRE: 1 FREQ:   1.16000000000000E+02                                  
 NOEUD        PRES_R       PRES_I  
 N1       -1.29467240139845E-15 -2.11436048712145E+01
 N2       -1.29479845566803E-15 -2.11456634936625E+01
 N3        1.26929448403765E-14  2.07291520285095E+02
 N4        1.26939804484716E-14  2.07308433048773E+02
 N18       1.26951453741391E-14  2.07327457728677E+02
 N19       1.26931670423761E-14  2.07295149119135E+02
 N28      -1.29470448985783E-15 -2.11441289155250E+01
 N29      -1.29485166056500E-15 -2.11465323955695E+01
 N41      -1.29475324533309E-15 -2.11449251528613E+01
 N42      -1.29490909270514E-15 -2.11474703335967E+01
 N43      -1.29492213265508E-15 -2.11476832921404E+01
 N44      -1.29483729623687E-15 -2.11462978082888E+01
 N45      -1.29479322210519E-15 -2.11455780230950E+01
 N46      -1.29475533233372E-15 -2.11449592361680E+01
 N47      -1.29478964840073E-15 -2.11455196600721E+01
 N48      -1.29483170767202E-15 -2.11462065400985E+01
 N64       1.26951388025618E-14  2.07327350406674E+02
 N65       1.26945328908708E-14  2.07317455117823E+02
 N110      1.26947196409892E-14  2.07320504978705E+02
 N111      1.26942813094561E-14  2.07313346481522E+02
 N121      1.26941792986624E-14  2.07311680518833E+02
 N122      1.26939293574028E-14  2.07307598668298E+02
 N123      1.26951946541520E-14  2.07328262532363E+02
 N124      1.26942525828831E-14  2.07312877340983E+02
 N248     -1.29498144677334E-15 -2.11486519652027E+01
 N249     -1.29507813012112E-15 -2.11502309240968E+01
 N250     -1.29497658098154E-15 -2.11485725007922E+01
 N251     -1.29496369552238E-15 -2.11483620652744E+01
 N302      1.26941070430568E-14  2.07310500495244E+02
 N303      1.26955266696434E-14  2.07333684756822E+02
 N304      1.26958727625534E-14  2.07339336882973E+02
 N305      1.26957055763779E-14  2.07336606525525E+02
 
   
   !----------------------------------------------------------------------------------------------------------------!
   ! <EXCEPTION> <MATRICE0_12>                                                                                      !
   !                                                                                                                !
   !  Une des charges renseignées pour l'assemblage des vecteurs est déjà présente dans le mot-clé                  !
   !  CHARGE définissant les conditions de Dirichlet. Il est interdit de renseigner plus d'une fois la même charge. !
   !----------------------------------------------------------------------------------------------------------------!
   

 --------------------------------------------------------------------------------
 ASTER 11.03.00 CONCEPT Pr_9 CALCULE LE 24/06/2016 A 15:52:07 DE TYPE ACOU_HARMO 

                    ENTITES TOPOLOGIQUES SELECTIONNEES 
 GROUP_MA : ENTREE SORTIE                                                        


 ======>

 ------>
 CHAMP AUX NOEUDS DE NOM SYMBOLIQUE  INTE_NOEU                                   
 NUMERO D'ORDRE: 1 FREQ:   1.28000000000000E+02                                  
 NOEUD        INTX_R       INTX_I       INTY_R       INTY_I       INTZ_R       INTZ_I  
 N1       -2.08746731847272E-31 -9.39385186186923E-04  4.12149008098868E-32 -6.42419177662863E-03 -1.80267042794645E-31 -1.28675540840953E-03
 N2        3.24639566250773E-31  1.09625986880966E-03  1.02170583549743E-31 -7.27520995929961E-03  1.59009591033471E-32 -1.35738240412061E-03
 N3       -1.30108123323024E-29  2.06694853788052E-01  2.36658271566304E-29  1.19514311045297E+02  1.15447944586348E-29 -2.60172221359632E-01
 N4       -1.25509002615827E-29 -1.95498831350483E-01  4.73316543132607E-30  1.19597689431152E+02 -1.31533311481871E-29 -1.96938548060897E-01
 N18       1.85422757255770E-29  1.38711754432541E-01 -1.57772181044202E-29  1.19675665162098E+02  1.32995573792147E-29  1.16725582082498E-01
 N19       1.29884715449475E-30 -1.61574022323768E-01 -3.15544362088405E-30  1.19428578765221E+02  3.51936734317546E-29  1.67712743447572E-01
 N28       5.23612203630280E-33 -1.03113367753744E-03  1.24318777910196E-31 -6.67026449227200E-03  2.01055049131875E-31  1.33067400709039E-03
 N29      -1.87605136809314E-32  5.21511908292082E-04 -1.34357687745315E-31 -7.23642023319673E-03 -3.72494411470489E-32  1.93608575597914E-03
 N41      -1.22967617683587E-31 -1.31473637322880E-03 -9.32029722461898E-32 -6.38373278872432E-03 -4.64720877049564E-32 -1.61509811298456E-03
 N42       6.10248958472324E-32  5.67014643481318E-05 -8.87853704362516E-32 -8.50738055202610E-03  8.43747902459023E-32 -1.59738160587293E-03
 N43       2.86770968719259E-31  1.72374043232954E-03  8.98325948435121E-32 -7.47272802170745E-03 -3.49503622759366E-32 -6.84480945442398E-04
 N44       6.59631005952628E-32  1.70400601937936E-03 -1.93194847546345E-31 -6.83583799113775E-03  1.06767988975583E-31  2.34281670914520E-04
 N45       6.08217704234103E-32 -5.60769123842541E-04 -6.46510608206490E-32 -6.89907114816694E-03  1.07692585812166E-31  1.63730174087377E-03
 N46       1.67916264709878E-31 -3.60294195882678E-04 -2.34626415474975E-31 -6.71155476253610E-03  8.34770260270343E-33  2.25436077980575E-03
 N47      -1.61249344383975E-31 -1.26359162806482E-03 -1.08058426522584E-32 -8.41849357218049E-03 -1.07565336869411E-31 -4.04177866314776E-04
 N48      -1.14809498809784E-31 -1.32934876059787E-03  5.32278888380022E-32 -8.25482059055394E-03 -2.23814124396564E-32  2.27957045422447E-04
 N64      -1.68371857481462E-29  3.90976739361798E-04  1.10440526730942E-29  1.19605095223663E+02 -7.68921110530123E-30  2.10388401814265E-02
 N65       8.26763206526553E-30  6.58939614794195E-02  1.53827876518097E-29  1.19510189068265E+02 -1.21400994044449E-29 -1.00917336691001E-01
 N110     -4.01826023596953E-30  1.68825895294386E-01  3.47098798297245E-29  1.19560029035028E+02  1.61159249839731E-29 -1.39002759362489E-01
 N111      2.58078464407778E-29  2.46857453652854E-01  4.73316543132607E-30  1.19526142859857E+02  2.12686462289759E-30  5.62578106661972E-03
 N121      1.15123425390719E-29 -1.19613684614733E-01  3.54987407349455E-30  1.19414909710746E+02  3.14874138467758E-29  2.06302573020162E-01
 N122     -9.15731540307521E-30 -3.88737836774080E-02 -7.09974814698911E-30  1.19362387067671E+02  2.62327065865097E-29  2.76797235547217E-01
 N123     -6.92784514281009E-30 -4.56613531902212E-02  6.76166490189439E-31  1.19650748953401E+02 -5.56015974944595E-30 -3.65107835668086E-02
 N124      1.52406540219140E-29 -1.96648571268478E-01  5.52202633654708E-30  1.19513990120758E+02  1.35371208378548E-29  1.36431916326534E-01
 N248      5.76078748287141E-33 -1.15419675222923E-03 -8.98253726062207E-32 -9.42172660631283E-03  1.16216612567492E-32 -8.58964051994683E-05
 N249      5.47135400859683E-32  4.69540430545359E-05 -8.46409173443875E-32 -1.00611251139860E-02  9.29515828327758E-32 -1.98116507260067E-04
 N250      8.00522131602477E-32 -3.07662959378008E-04 -1.41528337627542E-31 -8.63299522492516E-03  1.17453353532548E-31  6.04156609527479E-04
 N251      7.73011981334261E-32 -5.96164270949270E-04 -1.18344382728545E-31 -9.36742379322839E-03 -1.65203035669084E-32  1.87598746068925E-04
 N302     -4.87525091297324E-30 -2.84021903292859E-02  1.53827876518097E-29  1.19490530887881E+02 -4.93211399458127E-30 -3.37655414228337E-02
 N303      1.09291248098399E-29  5.24169366994584E-02  1.97215226305253E-29  1.19587110461910E+02 -4.95461527609820E-31 -9.73110752121749E-02
 N304      6.03450952390107E-30 -2.30213085824941E-04 -1.77493703674728E-30  1.19739789312868E+02  2.60542812142243E-30  2.36760515315920E-02
 N305     -1.05769321217255E-30 -4.03721453329262E-02  1.91580505553674E-30  1.19724354169536E+02  1.33401738660775E-29  5.09599261873640E-02
 

 ------>
 CHAMP AUX NOEUDS DE NOM SYMBOLIQUE  PRAC_NOEU                                   
 NUMERO D'ORDRE: 1 FREQ:   1.28000000000000E+02                                  
 NOEUD        PRES_R       PRES_I  
 N1       -1.21646009112583E-15 -1.98663009117858E+01
 N2       -1.21660424894886E-15 -1.98686551876983E+01
 N3        1.45055096333304E-14  2.36892949762000E+02
 N4        1.45069528890489E-14  2.36916519916586E+02
 N18       1.45085748726519E-14  2.36943008919034E+02
 N19       1.45058175265507E-14  2.36897978039876E+02
 N28      -1.21649679877255E-15 -1.98669003931505E+01
 N29      -1.21666511687272E-15 -1.98696492363318E+01
[...]
 * ASSEMBLAGE               :       0.06 :       0.00 :       0.06 :       0.06 *
 * DYNA_VIBRA               :       0.03 :       0.00 :       0.03 :       0.03 *
 * CALC_CHAMP               :       0.06 :       0.00 :       0.06 :       0.06 *
 * IMPR_RESU                :       0.01 :       0.00 :       0.01 :       0.01 *
 * DETRUIRE                 :       0.02 :       0.00 :       0.02 :       0.02 *
 * ASSEMBLAGE               :       0.06 :       0.00 :       0.06 :       0.06 *
 * DYNA_VIBRA               :       0.03 :       0.00 :       0.03 :       0.03 *
 * CALC_CHAMP               :       0.06 :       0.00 :       0.06 :       0.06 *
 * IMPR_RESU                :       0.01 :       0.00 :       0.01 :       0.01 *
 * DETRUIRE                 :       0.01 :       0.00 :       0.01 :       0.01 *
 * ASSEMBLAGE               :       0.06 :       0.00 :       0.06 :       0.06 *
 * DYNA_VIBRA               :       0.03 :       0.00 :       0.03 :       0.03 *
 * CALC_CHAMP               :       0.05 :       0.00 :       0.05 :       0.07 *
 * IMPR_RESU                :       0.01 :       0.00 :       0.01 :       0.00 *
 * DETRUIRE                 :       0.01 :       0.00 :       0.01 :       0.02 *
 * ASSEMBLAGE               :       0.06 :       0.00 :       0.06 :       0.06 *
 * DYNA_VIBRA               :       0.03 :       0.00 :       0.03 :       0.03 *
 * CALC_CHAMP               :       0.06 :       0.00 :       0.06 :       0.06 *
 * IMPR_RESU                :       0.01 :       0.00 :       0.01 :       0.01 *
 * DETRUIRE                 :       0.01 :       0.00 :       0.01 :       0.02 *
 * ASSEMBLAGE               :       0.07 :       0.00 :       0.07 :       0.06 *
 * DYNA_VIBRA               :       0.03 :       0.00 :       0.03 :       0.03 *
 * CALC_CHAMP               :       0.05 :       0.01 :       0.06 :       0.06 *
 * IMPR_RESU                :       0.01 :       0.00 :       0.01 :       0.01 *
 * DETRUIRE                 :       0.01 :       0.00 :       0.01 :       0.01 *
 * ASSEMBLAGE               :       0.06 :       0.00 :       0.06 :       0.07 *
 * DYNA_VIBRA               :       0.03 :       0.00 :       0.03 :       0.03 *
 * CALC_CHAMP               :       0.06 :       0.01 :       0.07 :       0.06 *
 * IMPR_RESU                :       0.00 :       0.00 :       0.00 :       0.00 *
 * DETRUIRE                 :       0.02 :       0.00 :       0.02 :       0.01 *
 * ASSEMBLAGE               :       0.06 :       0.00 :       0.06 :       0.06 *
 * DYNA_VIBRA               :       0.03 :       0.00 :       0.03 :       0.04 *
 * CALC_CHAMP               :       0.06 :       0.00 :       0.06 :       0.06 *
 * IMPR_RESU                :       0.00 :       0.00 :       0.00 :       0.00 *
 * DETRUIRE                 :       0.02 :       0.00 :       0.02 :       0.02 *
 * ASSEMBLAGE               :       0.06 :       0.00 :       0.06 :       0.06 *
 * DYNA_VIBRA               :       0.03 :       0.00 :       0.03 :       0.03 *
 * CALC_CHAMP               :       0.07 :       0.00 :       0.07 :       0.06 *
 * IMPR_RESU                :       0.00 :       0.00 :       0.00 :       0.00 *
 * DETRUIRE                 :       0.02 :       0.00 :       0.02 :       0.02 *
 * ASSEMBLAGE               :       0.06 :       0.00 :       0.06 :       0.06 *
 * DYNA_VIBRA               :       0.03 :       0.00 :       0.03 :       0.03 *
 * CALC_CHAMP               :       0.05 :       0.01 :       0.06 :       0.06 *
 * IMPR_RESU                :       0.00 :       0.00 :       0.00 :       0.01 *
 * DETRUIRE                 :       0.02 :       0.00 :       0.02 :       0.01 *
 * ASSEMBLAGE               :       0.06 :       0.00 :       0.06 :       0.07 *
 * DYNA_VIBRA               :       0.02 :       0.01 :       0.03 :       0.02 *
 * CALC_CHAMP               :       0.06 :       0.00 :       0.06 :       0.06 *
 * IMPR_RESU                :       0.00 :       0.00 :       0.00 :       0.01 *
 * DETRUIRE                 :       0.02 :       0.00 :       0.02 :       0.01 *
 * ASSEMBLAGE               :       0.06 :       0.00 :       0.06 :       0.06 *
 * DYNA_VIBRA               :       0.03 :       0.00 :       0.03 :       0.03 *
 * CALC_CHAMP               :       0.06 :       0.00 :       0.06 :       0.07 *
 * IMPR_RESU                :       0.01 :       0.00 :       0.01 :       0.00 *
 * DETRUIRE                 :       0.01 :       0.00 :       0.01 :       0.02 *
 * ASSEMBLAGE               :       0.06 :       0.00 :       0.06 :       0.06 *
 * DYNA_VIBRA               :       0.03 :       0.00 :       0.03 :       0.03 *
 * CALC_CHAMP               :       0.06 :       0.00 :       0.06 :       0.06 *
 * IMPR_RESU                :       0.01 :       0.00 :       0.01 :       0.01 *
 * DETRUIRE                 :       0.01 :       0.00 :       0.01 :       0.01 *
 * ASSEMBLAGE               :       0.07 :       0.00 :       0.07 :       0.07 *
 * DYNA_VIBRA               :       0.02 :       0.01 :       0.03 :       0.03 *
 * CALC_CHAMP               :       0.06 :       0.01 :       0.07 :       0.06 *
 * IMPR_RESU                :       0.00 :       0.00 :       0.00 :       0.01 *
 * DETRUIRE                 :       0.02 :       0.00 :       0.02 :       0.01 *
 * ASSEMBLAGE               :       0.06 :       0.00 :       0.06 :       0.06 *
 * DYNA_VIBRA               :       0.03 :       0.00 :       0.03 :       0.04 *
 * CALC_CHAMP               :       0.06 :       0.00 :       0.06 :       0.06 *
 * IMPR_RESU                :       0.00 :       0.00 :       0.00 :       0.00 *
 * DETRUIRE                 :       0.02 :       0.00 :       0.02 :       0.02 *
 * ASSEMBLAGE               :       0.06 :       0.00 :       0.06 :       0.06 *
 * DYNA_VIBRA               :       0.03 :       0.00 :       0.03 :       0.03 *
 * CALC_CHAMP               :       0.05 :       0.02 :       0.07 :       0.07 *
 * IMPR_RESU                :       0.00 :       0.00 :       0.00 :       0.00 *
 * DETRUIRE                 :       0.01 :       0.00 :       0.01 :       0.02 *
 * ASSEMBLAGE               :       0.06 :       0.00 :       0.06 :       0.06 *
 * DYNA_VIBRA               :       0.03 :       0.00 :       0.03 :       0.03 *
 * CALC_CHAMP               :       0.07 :       0.00 :       0.07 :       0.07 *
 * IMPR_RESU                :       0.00 :       0.00 :       0.00 :       0.00 *
 * DETRUIRE                 :       0.02 :       0.00 :       0.02 :       0.02 *
 * ASSEMBLAGE               :       0.06 :       0.00 :       0.06 :       0.06 *
 * DYNA_VIBRA               :       0.03 :       0.00 :       0.03 :       0.03 *
 * CALC_CHAMP               :       0.06 :       0.01 :       0.07 :       0.06 *
 * IMPR_RESU                :       0.00 :       0.00 :       0.00 :       0.01 *
 * DETRUIRE                 :       0.01 :       0.00 :       0.01 :       0.01 *
 * ASSEMBLAGE               :       0.06 :       0.01 :       0.07 :       0.07 *
 * DYNA_VIBRA               :       0.03 :       0.00 :       0.03 :       0.03 *
 * CALC_CHAMP               :       0.06 :       0.00 :       0.06 :       0.06 *
 * IMPR_RESU                :       0.00 :       0.00 :       0.00 :       0.01 *
 * DETRUIRE                 :       0.02 :       0.00 :       0.02 :       0.01 *
 * ASSEMBLAGE               :       0.06 :       0.01 :       0.07 :       0.06 *
 * DYNA_VIBRA               :       0.03 :       0.00 :       0.03 :       0.02 *
 * CALC_CHAMP               :       0.05 :       0.01 :       0.06 :       0.07 *
 * IMPR_RESU                :       0.01 :       0.00 :       0.01 :       0.00 *
 * DETRUIRE                 :       0.02 :       0.00 :       0.02 :       0.01 *
 * ASSEMBLAGE               :       0.06 :       0.00 :       0.06 :       0.06 *
 * DYNA_VIBRA               :       0.03 :       0.00 :       0.03 :       0.03 *
 * CALC_CHAMP               :       0.06 :       0.00 :       0.06 :       0.07 *
 * IMPR_RESU                :       0.00 :       0.00 :       0.00 :       0.00 *
 * DETRUIRE                 :       0.02 :       0.00 :       0.02 :       0.02 *
 * ASSEMBLAGE               :       0.06 :       0.00 :       0.06 :       0.06 *
 * DYNA_VIBRA               :       0.03 :       0.00 :       0.03 :       0.03 *
 * CALC_CHAMP               :       0.06 :       0.00 :       0.06 :       0.06 *
 * IMPR_RESU                :       0.00 :       0.01 :       0.01 :       0.01 *
 * DETRUIRE                 :       0.02 :       0.00 :       0.02 :       0.02 *
 * ASSEMBLAGE               :       0.06 :       0.00 :       0.06 :       0.06 *
 * DYNA_VIBRA               :       0.03 :       0.00 :       0.03 :       0.03 *
 * CALC_CHAMP               :       0.06 :       0.01 :       0.07 :       0.06 *
 * IMPR_RESU                :       0.00 :       0.00 :       0.00 :       0.01 *
 * DETRUIRE                 :       0.02 :       0.00 :       0.02 :       0.01 *
 * ASSEMBLAGE               :       0.06 :       0.00 :       0.06 :       0.07 *
 * DYNA_VIBRA               :       0.03 :       0.00 :       0.03 :       0.03 *
 * CALC_CHAMP               :       0.07 :       0.00 :       0.07 :       0.06 *
 * IMPR_RESU                :       0.00 :       0.00 :       0.00 :       0.01 *
 * DETRUIRE                 :       0.01 :       0.00 :       0.01 :       0.01 *
 * ASSEMBLAGE               :       0.07 :       0.00 :       0.07 :       0.07 *
 * DYNA_VIBRA               :       0.02 :       0.00 :       0.02 :       0.03 *
 * CALC_CHAMP               :       0.06 :       0.01 :       0.07 :       0.06 *
 * IMPR_RESU                :       0.01 :       0.00 :       0.01 :       0.01 *
 * DETRUIRE                 :       0.01 :       0.00 :       0.01 :       0.01 *
 * ASSEMBLAGE               :       0.05 :       0.00 :       0.05 :       0.06 *
 * DYNA_VIBRA               :       0.03 :       0.00 :       0.03 :       0.03 *
 * CALC_CHAMP               :       0.07 :       0.00 :       0.07 :       0.06 *
 * IMPR_RESU                :       0.00 :       0.00 :       0.00 :       0.00 *
 * DETRUIRE                 :       0.02 :       0.00 :       0.02 :       0.02 *
 * ASSEMBLAGE               :       0.06 :       0.00 :       0.06 :       0.06 *
 * DYNA_VIBRA               :       0.03 :       0.00 :       0.03 :       0.04 *
 * CALC_CHAMP               :       0.07 :       0.00 :       0.07 :       0.06 *
 * IMPR_RESU                :       0.00 :       0.00 :       0.00 :       0.00 *
 * DETRUIRE                 :       0.02 :       0.00 :       0.02 :       0.02 *
 * ASSEMBLAGE               :       0.06 :       0.00 :       0.06 :       0.06 *
 * DYNA_VIBRA               :       0.03 :       0.00 :       0.03 :       0.04 *
 * CALC_CHAMP               :       0.07 :       0.00 :       0.07 :       0.06 *
 * IMPR_RESU                :       0.00 :       0.00 :       0.00 :       0.00 *
 * DETRUIRE                 :       0.01 :       0.01 :       0.02 :       0.02 *
 * ASSEMBLAGE               :       0.06 :       0.00 :       0.06 :       0.06 *
 * DYNA_VIBRA               :       0.03 :       0.00 :       0.03 :       0.04 *
 * CALC_CHAMP               :       0.06 :       0.00 :       0.06 :       0.06 *
 * IMPR_RESU                :       0.01 :       0.00 :       0.01 :       0.00 *
 * DETRUIRE                 :       0.01 :       0.00 :       0.01 :       0.02 *
 * ASSEMBLAGE               :       0.07 :       0.00 :       0.07 :       0.06 *
 * DYNA_VIBRA               :       0.02 :       0.00 :       0.02 :       0.03 *
 * CALC_CHAMP               :       0.06 :       0.01 :       0.07 :       0.07 *
 * IMPR_RESU                :       0.00 :       0.00 :       0.00 :       0.00 *
 * DETRUIRE                 :       0.01 :       0.00 :       0.01 :       0.02 *
 * ASSEMBLAGE               :       0.06 :       0.00 :       0.06 :       0.06 *
 * DYNA_VIBRA               :       0.03 :       0.00 :       0.03 :       0.03 *
 * CALC_CHAMP               :       0.06 :       0.00 :       0.06 :       0.07 *
 * IMPR_RESU                :       0.00 :       0.00 :       0.00 :       0.00 *
 * DETRUIRE                 :       0.01 :       0.00 :       0.01 :       0.02 *
 * ASSEMBLAGE               :       0.06 :       0.01 :       0.07 :       0.06 *
 * DYNA_VIBRA               :       0.02 :       0.01 :       0.03 :       0.03 *
 * CALC_CHAMP               :       0.07 :       0.00 :       0.07 :       0.06 *
 * IMPR_RESU                :       0.00 :       0.00 :       0.00 :       0.01 *
 * DETRUIRE                 :       0.02 :       0.00 :       0.02 :       0.02 *
 * ASSEMBLAGE               :       0.06 :       0.00 :       0.06 :       0.06 *
 * DYNA_VIBRA               :       0.02 :       0.01 :       0.03 :       0.03 *
 * CALC_CHAMP               :       0.05 :       0.01 :       0.06 :       0.06 *
 * IMPR_RESU                :       0.01 :       0.00 :       0.01 :       0.01 *
 * DETRUIRE                 :       0.02 :       0.00 :       0.02 :       0.02 *
 * ASSEMBLAGE               :       0.06 :       0.00 :       0.06 :       0.06 *
 * DYNA_VIBRA               :       0.03 :       0.00 :       0.03 :       0.03 *
 * CALC_CHAMP               :       0.05 :       0.01 :       0.06 :       0.06 *
 * IMPR_RESU                :       0.01 :       0.00 :       0.01 :       0.01 *
 * DETRUIRE                 :       0.01 :       0.00 :       0.01 :       0.02 *
 * ASSEMBLAGE               :       0.07 :       0.00 :       0.07 :       0.06 *
 * DYNA_VIBRA               :       0.02 :       0.01 :       0.03 :       0.03 *
 * CALC_CHAMP               :       0.05 :       0.01 :       0.06 :       0.06 *
 * IMPR_RESU                :       0.01 :       0.00 :       0.01 :       0.01 *
 * DETRUIRE                 :       0.01 :       0.00 :       0.01 :       0.01 *
 * ASSEMBLAGE               :       0.06 :       0.00 :       0.06 :       0.06 *
 * DYNA_VIBRA               :       0.03 :       0.00 :       0.03 :       0.03 *
 * CALC_CHAMP               :       0.07 :       0.00 :       0.07 :       0.06 *
 * IMPR_RESU                :       0.00 :       0.00 :       0.00 :       0.01 *
 * DETRUIRE                 :       0.02 :       0.00 :       0.02 :       0.01 *
 * ASSEMBLAGE               :       0.06 :       0.00 :       0.06 :       0.07 *
 * DYNA_VIBRA               :       0.03 :       0.00 :       0.03 :       0.03 *
 * CALC_CHAMP               :       0.06 :       0.01 :       0.07 :       0.06 *
 * IMPR_RESU                :       0.01 :       0.00 :       0.01 :       0.01 *
 * DETRUIRE                 :       0.01 :       0.00 :       0.01 :       0.01 *
 * ASSEMBLAGE               :       0.07 :       0.00 :       0.07 :       0.07 *
 * DYNA_VIBRA               :       0.03 :       0.00 :       0.03 :       0.03 *
 * CALC_CHAMP               :       0.06 :       0.00 :       0.06 :       0.06 *
 * IMPR_RESU                :       0.01 :       0.00 :       0.01 :       0.01 *
 * DETRUIRE                 :       0.01 :       0.00 :       0.01 :       0.01 *
 * ASSEMBLAGE               :       0.06 :       0.00 :       0.06 :       0.07 *
 * DYNA_VIBRA               :       0.03 :       0.00 :       0.03 :       0.03 *
 * CALC_CHAMP               :       0.06 :       0.01 :       0.07 :       0.06 *
 * IMPR_RESU                :       0.00 :       0.00 :       0.00 :       0.01 *
 * DETRUIRE                 :       0.02 :       0.00 :       0.02 :       0.01 *
 * ASSEMBLAGE               :       0.06 :       0.00 :       0.06 :       0.07 *
 * DYNA_VIBRA               :       0.03 :       0.00 :       0.03 :       0.03 *
 * CALC_CHAMP               :       0.06 :       0.01 :       0.07 :       0.06 *
 * IMPR_RESU                :       0.00 :       0.00 :       0.00 :       0.01 *
 * DETRUIRE                 :       0.02 :       0.00 :       0.02 :       0.01 *
 * ASSEMBLAGE               :       0.06 :       0.00 :       0.06 :       0.07 *
 * DYNA_VIBRA               :       0.03 :       0.00 :       0.03 :       0.03 *
 * CALC_CHAMP               :       0.06 :       0.00 :       0.06 :       0.06 *
 * IMPR_RESU                :       0.01 :       0.00 :       0.01 :       0.01 *
 * DETRUIRE                 :       0.01 :       0.00 :       0.01 :       0.01 *
 * ASSEMBLAGE               :       0.07 :       0.00 :       0.07 :       0.07 *
 * DYNA_VIBRA               :       0.03 :       0.00 :       0.03 :       0.03 *
 * CALC_CHAMP               :       0.06 :       0.00 :       0.06 :       0.06 *
 * IMPR_RESU                :       0.01 :       0.00 :       0.01 :       0.01 *
 * DETRUIRE                 :       0.01 :       0.00 :       0.01 :       0.01 *
 * ASSEMBLAGE               :       0.07 :       0.00 :       0.07 :       0.07 *
 * DYNA_VIBRA               :       0.03 :       0.00 :       0.03 :       0.03 *
 * CALC_CHAMP               :       0.06 :       0.01 :       0.07 :       0.06 *
 * IMPR_RESU                :       0.00 :       0.00 :       0.00 :       0.01 *
 * DETRUIRE                 :       0.02 :       0.00 :       0.02 :       0.01 *
 * ASSEMBLAGE               :       0.06 :       0.00 :       0.06 :       0.06 *
 * DYNA_VIBRA               :       0.03 :       0.00 :       0.03 :       0.03 *
 * CALC_CHAMP               :       0.06 :       0.01 :       0.07 :       0.06 *
 * IMPR_RESU                :       0.01 :       0.00 :       0.01 :       0.01 *
 * DETRUIRE                 :       0.01 :       0.00 :       0.01 :       0.01 *
 * ASSEMBLAGE               :       0.07 :       0.00 :       0.07 :       0.06 *
 * DYNA_VIBRA               :       0.03 :       0.00 :       0.03 :       0.03 *
 * CALC_CHAMP               :       0.05 :       0.00 :       0.05 :       0.06 *
 * IMPR_RESU                :       0.01 :       0.00 :       0.01 :       0.01 *
 * DETRUIRE                 :       0.01 :       0.00 :       0.01 :       0.02 *
 * ASSEMBLAGE               :       0.07 :       0.00 :       0.07 :       0.06 *
 * DYNA_VIBRA               :       0.03 :       0.00 :       0.03 :       0.03 *
 * CALC_CHAMP               :       0.05 :       0.01 :       0.06 :       0.06 *
 * IMPR_RESU                :       0.01 :       0.00 :       0.01 :       0.01 *
 * DETRUIRE                 :       0.02 :       0.00 :       0.02 :       0.02 *
 * ASSEMBLAGE               :       0.06 :       0.00 :       0.06 :       0.06 *
 * DYNA_VIBRA               :       0.03 :       0.01 :       0.04 :       0.03 *
 * CALC_CHAMP               :       0.06 :       0.00 :       0.06 :       0.07 *
 * IMPR_RESU                :       0.00 :       0.00 :       0.00 :       0.00 *
 * DETRUIRE                 :       0.01 :       0.00 :       0.01 :       0.02 *
 * ASSEMBLAGE               :       0.06 :       0.00 :       0.06 :       0.06 *
 * DYNA_VIBRA               :       0.03 :       0.00 :       0.03 :       0.03 *
 * CALC_CHAMP               :       0.06 :       0.01 :       0.07 :       0.07 *
 * IMPR_RESU                :       0.01 :       0.00 :       0.01 :       0.00 *
 * DETRUIRE                 :       0.01 :       0.00 :       0.01 :       0.02 *
 * ASSEMBLAGE               :       0.07 :       0.00 :       0.07 :       0.06 *
 * DYNA_VIBRA               :       0.03 :       0.00 :       0.03 :       0.03 *
 *  . part Superviseur      :       5.27 :       0.14 :       5.41 :       5.36 *
 *  . part Fortran          :      13.91 :       0.72 :      14.63 :      14.69 *
 * > 500 commandes...       :      27.48 :       1.50 :      28.98 :      31.16 *
 ********************************************************************************
 * TOTAL_JOB                :      46.66 :       2.36 :      49.02 :      51.23 *
 ********************************************************************************

